
---------- Begin Simulation Statistics ----------
final_tick                                52447791875                       # Number of ticks from beginning of simulation (restored from checkpoints and never reset)
host_inst_rate                                 219187                       # Simulator instruction rate (inst/s)
host_mem_usage                                 692196                       # Number of bytes of host memory used
host_op_rate                                   219191                       # Simulator op (including micro ops) rate (op/s)
host_seconds                                   456.23                       # Real time elapsed on the host
host_tick_rate                              114958542                       # Simulator tick rate (ticks/s)
sim_freq                                 1000000000000                       # Frequency of simulated ticks
sim_insts                                   100000000                       # Number of instructions simulated
sim_ops                                     100002034                       # Number of ops (including micro ops) simulated
sim_seconds                                  0.052448                       # Number of seconds simulated
sim_ticks                                 52447791875                       # Number of ticks simulated
system.cpu.branchPred.BTBCorrect                    0                       # Number of correct BTB predictions (this stat may not work properly.
system.cpu.branchPred.BTBHitPct             99.982177                       # BTB Hit Percentage
system.cpu.branchPred.BTBHits                 4207412                       # Number of BTB hits
system.cpu.branchPred.BTBLookups              4208162                       # Number of BTB lookups
system.cpu.branchPred.RASInCorrect                 58                       # Number of incorrect RAS predictions.
system.cpu.branchPred.condIncorrect            475520                       # Number of conditional branches incorrect
system.cpu.branchPred.condPredicted           4109269                       # Number of conditional branches predicted
system.cpu.branchPred.indirectHits                 27                       # Number of indirect target hits.
system.cpu.branchPred.indirectLookups             243                       # Number of indirect predictor lookups.
system.cpu.branchPred.indirectMisses              216                       # Number of indirect misses.
system.cpu.branchPred.lookups                 6494393                       # Number of BP lookups
system.cpu.branchPred.usedRAS                  704232                       # Number of times the RAS was used to get a target.
system.cpu.branchPredindirectMispredicted           71                       # Number of mispredicted indirect branches.
system.cpu.cc_regfile_reads                 357965295                       # number of cc regfile reads
system.cpu.cc_regfile_writes                 42558035                       # number of cc regfile writes
system.cpu.commit.amos                              0                       # Number of atomic instructions committed
system.cpu.commit.branchMispredicts            475262                       # The number of times a branch was mispredicted
system.cpu.commit.branches                    5915731                       # Number of branches committed
system.cpu.commit.bw_lim_events               4420556                       # number cycles where commit BW limit reached
system.cpu.commit.commitNonSpecStalls              50                       # The number of times commit has been forced to stall to communicate backwards
system.cpu.commit.commitSquashedInsts         2510377                       # The number of squashed insts skipped by commit
system.cpu.commit.committedInsts            100000000                       # Number of instructions committed
system.cpu.commit.committedOps              100002034                       # Number of ops (including micro ops) committed
system.cpu.commit.committed_per_cycle::samples     83358868                       # Number of insts commited each cycle
system.cpu.commit.committed_per_cycle::mean     1.199657                       # Number of insts commited each cycle
system.cpu.commit.committed_per_cycle::stdev     1.912416                       # Number of insts commited each cycle
system.cpu.commit.committed_per_cycle::underflows            0      0.00%      0.00% # Number of insts commited each cycle
system.cpu.commit.committed_per_cycle::0     33124641     39.74%     39.74% # Number of insts commited each cycle
system.cpu.commit.committed_per_cycle::1     38378394     46.04%     85.78% # Number of insts commited each cycle
system.cpu.commit.committed_per_cycle::2       827115      0.99%     86.77% # Number of insts commited each cycle
system.cpu.commit.committed_per_cycle::3      4181424      5.02%     91.79% # Number of insts commited each cycle
system.cpu.commit.committed_per_cycle::4      1018052      1.22%     93.01% # Number of insts commited each cycle
system.cpu.commit.committed_per_cycle::5       814914      0.98%     93.98% # Number of insts commited each cycle
system.cpu.commit.committed_per_cycle::6       242492      0.29%     94.28% # Number of insts commited each cycle
system.cpu.commit.committed_per_cycle::7       351280      0.42%     94.70% # Number of insts commited each cycle
system.cpu.commit.committed_per_cycle::8      4420556      5.30%    100.00% # Number of insts commited each cycle
system.cpu.commit.committed_per_cycle::overflows            0      0.00%    100.00% # Number of insts commited each cycle
system.cpu.commit.committed_per_cycle::min_value            0                       # Number of insts commited each cycle
system.cpu.commit.committed_per_cycle::max_value            8                       # Number of insts commited each cycle
system.cpu.commit.committed_per_cycle::total     83358868                       # Number of insts commited each cycle
system.cpu.commit.fp_insts                          0                       # Number of committed floating point instructions.
system.cpu.commit.function_calls               683421                       # Number of function calls committed.
system.cpu.commit.int_insts                  95453226                       # Number of committed integer instructions.
system.cpu.commit.loads                      20659431                       # Number of loads committed
system.cpu.commit.membars                          20                       # Number of memory barriers committed
system.cpu.commit.op_class_0::No_OpClass            0      0.00%      0.00% # Class of committed instruction
system.cpu.commit.op_class_0::IntAlu         61232402     61.23%     61.23% # Class of committed instruction
system.cpu.commit.op_class_0::IntMult              10      0.00%     61.23% # Class of committed instruction
system.cpu.commit.op_class_0::IntDiv                0      0.00%     61.23% # Class of committed instruction
system.cpu.commit.op_class_0::FloatAdd              0      0.00%     61.23% # Class of committed instruction
system.cpu.commit.op_class_0::FloatCmp              0      0.00%     61.23% # Class of committed instruction
system.cpu.commit.op_class_0::FloatCvt              0      0.00%     61.23% # Class of committed instruction
system.cpu.commit.op_class_0::FloatMult             0      0.00%     61.23% # Class of committed instruction
system.cpu.commit.op_class_0::FloatMultAcc            0      0.00%     61.23% # Class of committed instruction
system.cpu.commit.op_class_0::FloatDiv              0      0.00%     61.23% # Class of committed instruction
system.cpu.commit.op_class_0::FloatMisc             0      0.00%     61.23% # Class of committed instruction
system.cpu.commit.op_class_0::FloatSqrt             0      0.00%     61.23% # Class of committed instruction
system.cpu.commit.op_class_0::SimdAdd               0      0.00%     61.23% # Class of committed instruction
system.cpu.commit.op_class_0::SimdAddAcc            0      0.00%     61.23% # Class of committed instruction
system.cpu.commit.op_class_0::SimdAlu               0      0.00%     61.23% # Class of committed instruction
system.cpu.commit.op_class_0::SimdCmp               0      0.00%     61.23% # Class of committed instruction
system.cpu.commit.op_class_0::SimdCvt               0      0.00%     61.23% # Class of committed instruction
system.cpu.commit.op_class_0::SimdMisc              0      0.00%     61.23% # Class of committed instruction
system.cpu.commit.op_class_0::SimdMult              0      0.00%     61.23% # Class of committed instruction
system.cpu.commit.op_class_0::SimdMultAcc            0      0.00%     61.23% # Class of committed instruction
system.cpu.commit.op_class_0::SimdShift             0      0.00%     61.23% # Class of committed instruction
system.cpu.commit.op_class_0::SimdShiftAcc            0      0.00%     61.23% # Class of committed instruction
system.cpu.commit.op_class_0::SimdDiv               0      0.00%     61.23% # Class of committed instruction
system.cpu.commit.op_class_0::SimdSqrt              0      0.00%     61.23% # Class of committed instruction
system.cpu.commit.op_class_0::SimdFloatAdd            0      0.00%     61.23% # Class of committed instruction
system.cpu.commit.op_class_0::SimdFloatAlu            0      0.00%     61.23% # Class of committed instruction
system.cpu.commit.op_class_0::SimdFloatCmp            0      0.00%     61.23% # Class of committed instruction
system.cpu.commit.op_class_0::SimdFloatCvt            0      0.00%     61.23% # Class of committed instruction
system.cpu.commit.op_class_0::SimdFloatDiv            0      0.00%     61.23% # Class of committed instruction
system.cpu.commit.op_class_0::SimdFloatMisc            4      0.00%     61.23% # Class of committed instruction
system.cpu.commit.op_class_0::SimdFloatMult            0      0.00%     61.23% # Class of committed instruction
system.cpu.commit.op_class_0::SimdFloatMultAcc            0      0.00%     61.23% # Class of committed instruction
system.cpu.commit.op_class_0::SimdFloatSqrt            0      0.00%     61.23% # Class of committed instruction
system.cpu.commit.op_class_0::SimdReduceAdd            0      0.00%     61.23% # Class of committed instruction
system.cpu.commit.op_class_0::SimdReduceAlu            0      0.00%     61.23% # Class of committed instruction
system.cpu.commit.op_class_0::SimdReduceCmp            0      0.00%     61.23% # Class of committed instruction
system.cpu.commit.op_class_0::SimdFloatReduceAdd            0      0.00%     61.23% # Class of committed instruction
system.cpu.commit.op_class_0::SimdFloatReduceCmp            0      0.00%     61.23% # Class of committed instruction
system.cpu.commit.op_class_0::SimdAes               0      0.00%     61.23% # Class of committed instruction
system.cpu.commit.op_class_0::SimdAesMix            0      0.00%     61.23% # Class of committed instruction
system.cpu.commit.op_class_0::SimdSha1Hash            0      0.00%     61.23% # Class of committed instruction
system.cpu.commit.op_class_0::SimdSha1Hash2            0      0.00%     61.23% # Class of committed instruction
system.cpu.commit.op_class_0::SimdSha256Hash            0      0.00%     61.23% # Class of committed instruction
system.cpu.commit.op_class_0::SimdSha256Hash2            0      0.00%     61.23% # Class of committed instruction
system.cpu.commit.op_class_0::SimdShaSigma2            0      0.00%     61.23% # Class of committed instruction
system.cpu.commit.op_class_0::SimdShaSigma3            0      0.00%     61.23% # Class of committed instruction
system.cpu.commit.op_class_0::SimdPredAlu            0      0.00%     61.23% # Class of committed instruction
system.cpu.commit.op_class_0::MemRead        20659431     20.66%     81.89% # Class of committed instruction
system.cpu.commit.op_class_0::MemWrite       18110187     18.11%    100.00% # Class of committed instruction
system.cpu.commit.op_class_0::FloatMemRead            0      0.00%    100.00% # Class of committed instruction
system.cpu.commit.op_class_0::FloatMemWrite            0      0.00%    100.00% # Class of committed instruction
system.cpu.commit.op_class_0::IprAccess             0      0.00%    100.00% # Class of committed instruction
system.cpu.commit.op_class_0::InstPrefetch            0      0.00%    100.00% # Class of committed instruction
system.cpu.commit.op_class_0::total         100002034                       # Class of committed instruction
system.cpu.commit.refs                       38769618                       # Number of memory references committed
system.cpu.commit.swp_count                         0                       # Number of s/w prefetches committed
system.cpu.commit.vec_insts                         0                       # Number of committed Vector instructions.
system.cpu.committedInsts                   100000000                       # Number of Instructions Simulated
system.cpu.committedOps                     100002034                       # Number of Ops (including micro ops) Simulated
system.cpu.cpi                               0.839165                       # CPI: Cycles Per Instruction
system.cpu.cpi_total                         0.839165                       # CPI: Total CPI of All Threads
system.cpu.decode.BlockedCycles              35151648                       # Number of cycles decode is blocked
system.cpu.decode.BranchMispred                   267                       # Number of times decode detected a branch misprediction
system.cpu.decode.BranchResolved              4102462                       # Number of times decode resolved a branch
system.cpu.decode.DecodedInsts              106129409                       # Number of instructions handled by decode
system.cpu.decode.IdleCycles                  7395595                       # Number of cycles decode is idle
system.cpu.decode.RunCycles                  31497942                       # Number of cycles decode is running
system.cpu.decode.SquashCycles                 481864                       # Number of cycles decode is squashing
system.cpu.decode.SquashedInsts               1346528                       # Number of squashed instructions handled by decode
system.cpu.decode.UnblockCycles               9365449                       # Number of cycles decode is unblocking
system.cpu.dtb.accesses                             0                       # DTB accesses
system.cpu.dtb.align_faults                         0                       # Number of TLB faults due to alignment restrictions
system.cpu.dtb.domain_faults                        0                       # Number of TLB faults due to domain restrictions
system.cpu.dtb.flush_entries                        0                       # Number of entries that have been flushed from TLB
system.cpu.dtb.flush_tlb                            0                       # Number of times complete TLB was flushed
system.cpu.dtb.flush_tlb_asid                       0                       # Number of times TLB was flushed by ASID
system.cpu.dtb.flush_tlb_mva                        0                       # Number of times TLB was flushed by MVA
system.cpu.dtb.flush_tlb_mva_asid                   0                       # Number of times TLB was flushed by MVA & ASID
system.cpu.dtb.hits                                 0                       # DTB hits
system.cpu.dtb.inst_accesses                        0                       # ITB inst accesses
system.cpu.dtb.inst_hits                            0                       # ITB inst hits
system.cpu.dtb.inst_misses                          0                       # ITB inst misses
system.cpu.dtb.misses                               0                       # DTB misses
system.cpu.dtb.perms_faults                         0                       # Number of TLB faults due to permissions restrictions
system.cpu.dtb.prefetch_faults                      0                       # Number of TLB faults due to prefetch
system.cpu.dtb.read_accesses                        0                       # DTB read accesses
system.cpu.dtb.read_hits                            0                       # DTB read hits
system.cpu.dtb.read_misses                          0                       # DTB read misses
system.cpu.dtb.stage2_mmu.stage2_tlb.accesses            0                       # DTB accesses
system.cpu.dtb.stage2_mmu.stage2_tlb.align_faults            0                       # Number of TLB faults due to alignment restrictions
system.cpu.dtb.stage2_mmu.stage2_tlb.domain_faults            0                       # Number of TLB faults due to domain restrictions
system.cpu.dtb.stage2_mmu.stage2_tlb.flush_entries            0                       # Number of entries that have been flushed from TLB
system.cpu.dtb.stage2_mmu.stage2_tlb.flush_tlb            0                       # Number of times complete TLB was flushed
system.cpu.dtb.stage2_mmu.stage2_tlb.flush_tlb_asid            0                       # Number of times TLB was flushed by ASID
system.cpu.dtb.stage2_mmu.stage2_tlb.flush_tlb_mva            0                       # Number of times TLB was flushed by MVA
system.cpu.dtb.stage2_mmu.stage2_tlb.flush_tlb_mva_asid            0                       # Number of times TLB was flushed by MVA & ASID
system.cpu.dtb.stage2_mmu.stage2_tlb.hits            0                       # DTB hits
system.cpu.dtb.stage2_mmu.stage2_tlb.inst_accesses            0                       # ITB inst accesses
system.cpu.dtb.stage2_mmu.stage2_tlb.inst_hits            0                       # ITB inst hits
system.cpu.dtb.stage2_mmu.stage2_tlb.inst_misses            0                       # ITB inst misses
system.cpu.dtb.stage2_mmu.stage2_tlb.misses            0                       # DTB misses
system.cpu.dtb.stage2_mmu.stage2_tlb.perms_faults            0                       # Number of TLB faults due to permissions restrictions
system.cpu.dtb.stage2_mmu.stage2_tlb.prefetch_faults            0                       # Number of TLB faults due to prefetch
system.cpu.dtb.stage2_mmu.stage2_tlb.read_accesses            0                       # DTB read accesses
system.cpu.dtb.stage2_mmu.stage2_tlb.read_hits            0                       # DTB read hits
system.cpu.dtb.stage2_mmu.stage2_tlb.read_misses            0                       # DTB read misses
system.cpu.dtb.stage2_mmu.stage2_tlb.walker.walkRequestOrigin_Requested::Data            0                       # Table walker requests started/completed, data/inst
system.cpu.dtb.stage2_mmu.stage2_tlb.walker.walkRequestOrigin_Requested::Inst            0                       # Table walker requests started/completed, data/inst
system.cpu.dtb.stage2_mmu.stage2_tlb.walker.walkRequestOrigin_Requested::total            0                       # Table walker requests started/completed, data/inst
system.cpu.dtb.stage2_mmu.stage2_tlb.walker.walkRequestOrigin_Completed::Data            0                       # Table walker requests started/completed, data/inst
system.cpu.dtb.stage2_mmu.stage2_tlb.walker.walkRequestOrigin_Completed::Inst            0                       # Table walker requests started/completed, data/inst
system.cpu.dtb.stage2_mmu.stage2_tlb.walker.walkRequestOrigin_Completed::total            0                       # Table walker requests started/completed, data/inst
system.cpu.dtb.stage2_mmu.stage2_tlb.walker.walkRequestOrigin::total            0                       # Table walker requests started/completed, data/inst
system.cpu.dtb.stage2_mmu.stage2_tlb.walker.walks            0                       # Table walker walks requested
system.cpu.dtb.stage2_mmu.stage2_tlb.write_accesses            0                       # DTB write accesses
system.cpu.dtb.stage2_mmu.stage2_tlb.write_hits            0                       # DTB write hits
system.cpu.dtb.stage2_mmu.stage2_tlb.write_misses            0                       # DTB write misses
system.cpu.dtb.walker.walkRequestOrigin_Requested::Data            0                       # Table walker requests started/completed, data/inst
system.cpu.dtb.walker.walkRequestOrigin_Requested::Inst            0                       # Table walker requests started/completed, data/inst
system.cpu.dtb.walker.walkRequestOrigin_Requested::total            0                       # Table walker requests started/completed, data/inst
system.cpu.dtb.walker.walkRequestOrigin_Completed::Data            0                       # Table walker requests started/completed, data/inst
system.cpu.dtb.walker.walkRequestOrigin_Completed::Inst            0                       # Table walker requests started/completed, data/inst
system.cpu.dtb.walker.walkRequestOrigin_Completed::total            0                       # Table walker requests started/completed, data/inst
system.cpu.dtb.walker.walkRequestOrigin::total            0                       # Table walker requests started/completed, data/inst
system.cpu.dtb.walker.walks                         0                       # Table walker walks requested
system.cpu.dtb.write_accesses                       0                       # DTB write accesses
system.cpu.dtb.write_hits                           0                       # DTB write hits
system.cpu.dtb.write_misses                         0                       # DTB write misses
system.cpu.fetch.Branches                     6494393                       # Number of branches that fetch encountered
system.cpu.fetch.CacheLines                  32749877                       # Number of cache lines fetched
system.cpu.fetch.Cycles                      82932217                       # Number of cycles fetch has run and was not squashing or blocked
system.cpu.fetch.IcacheSquashes                   290                       # Number of outstanding Icache misses that were squashed
system.cpu.fetch.IcacheWaitRetryStallCycles          366                       # Number of stall cycles due to full MSHR
system.cpu.fetch.Insts                      116082245                       # Number of instructions fetch has processed
system.cpu.fetch.MiscStallCycles                  192                       # Number of cycles fetch has spent waiting on interrupts, or bad addresses, or out of MSHRs
system.cpu.fetch.PendingTrapStallCycles           112                       # Number of stall cycles due to pending traps
system.cpu.fetch.SquashCycles                  964256                       # Number of cycles fetch has spent squashing
system.cpu.fetch.branchRate                  0.077391                       # Number of branch fetches per cycle
system.cpu.fetch.icacheStallCycles             477483                       # Number of cycles fetch is stalled on an Icache miss
system.cpu.fetch.predictedBranches            4911671                       # Number of branches that fetch has predicted taken
system.cpu.fetch.rate                        1.383307                       # Number of inst fetches per cycle
system.cpu.fetch.rateDist::samples           83892498                       # Number of instructions fetched each cycle (Total)
system.cpu.fetch.rateDist::mean              1.383745                       # Number of instructions fetched each cycle (Total)
system.cpu.fetch.rateDist::stdev             1.225452                       # Number of instructions fetched each cycle (Total)
system.cpu.fetch.rateDist::underflows               0      0.00%      0.00% # Number of instructions fetched each cycle (Total)
system.cpu.fetch.rateDist::0                 26353467     31.41%     31.41% # Number of instructions fetched each cycle (Total)
system.cpu.fetch.rateDist::1                 25711204     30.65%     62.06% # Number of instructions fetched each cycle (Total)
system.cpu.fetch.rateDist::2                  5108859      6.09%     68.15% # Number of instructions fetched each cycle (Total)
system.cpu.fetch.rateDist::3                 26718968     31.85%    100.00% # Number of instructions fetched each cycle (Total)
system.cpu.fetch.rateDist::overflows                0      0.00%    100.00% # Number of instructions fetched each cycle (Total)
system.cpu.fetch.rateDist::min_value                0                       # Number of instructions fetched each cycle (Total)
system.cpu.fetch.rateDist::max_value                3                       # Number of instructions fetched each cycle (Total)
system.cpu.fetch.rateDist::total             83892498                       # Number of instructions fetched each cycle (Total)
system.cpu.idleCycles                           23970                       # Total number of cycles that the CPU has spent unscheduled due to idling
system.cpu.iew.branchMispredicts               475742                       # Number of branch mispredicts detected at execute
system.cpu.iew.branch_mispredict_rate        7.998997                       # Percentage of branch mispredicts
system.cpu.iew.branch_percentage             5.886929                       # Percentage of branches executed
system.cpu.iew.exec_branches                  5947521                       # Number of branches executed
system.cpu.iew.exec_nop                             2                       # number of nop insts executed
system.cpu.iew.exec_rate                     1.203927                       # Inst execution rate
system.cpu.iew.exec_refs                     39141032                       # number of memory reference insts executed
system.cpu.iew.exec_stores                   18250422                       # Number of stores executed
system.cpu.iew.exec_swp                             0                       # number of swp insts executed
system.cpu.iew.iewBlockCycles                 2599843                       # Number of cycles IEW is blocking
system.cpu.iew.iewDispLoadInsts              21299699                       # Number of dispatched load instructions
system.cpu.iew.iewDispNonSpecInsts                 32                       # Number of dispatched non-speculative instructions
system.cpu.iew.iewDispSquashedInsts                 0                       # Number of squashed instructions skipped by dispatch
system.cpu.iew.iewDispStoreInsts             19007236                       # Number of dispatched store instructions
system.cpu.iew.iewDispatchedInsts           103481246                       # Number of instructions dispatched to IQ
system.cpu.iew.iewExecLoadInsts              20890610                       # Number of load instructions executed
system.cpu.iew.iewExecSquashedInsts            772003                       # Number of squashed instructions skipped in execute
system.cpu.iew.iewExecutedInsts             101029269                       # Number of executed instructions
system.cpu.iew.iewIQFullEvents                 178691                       # Number of times the IQ has become full, causing a stall
system.cpu.iew.iewIdleCycles                        0                       # Number of cycles IEW is idle
system.cpu.iew.iewLSQFullEvents                   255                       # Number of times the LSQ has become full, causing a stall
system.cpu.iew.iewSquashCycles                 481864                       # Number of cycles IEW is squashing
system.cpu.iew.iewUnblockCycles                178916                       # Number of cycles IEW is unblocking
system.cpu.iew.lsq.thread0.blockedLoads             0                       # Number of blocked loads due to partial load-store forwarding
system.cpu.iew.lsq.thread0.cacheBlocked            50                       # Number of times an access to memory failed due to the cache being blocked
system.cpu.iew.lsq.thread0.forwLoads          6404029                       # Number of loads that had data forwarded from stores
system.cpu.iew.lsq.thread0.ignoredResponses         1294                       # Number of memory responses ignored because the instruction is squashed
system.cpu.iew.lsq.thread0.invAddrLoads             0                       # Number of loads ignored due to an invalid address
system.cpu.iew.lsq.thread0.invAddrSwpfs             0                       # Number of software prefetches ignored due to an invalid address
system.cpu.iew.lsq.thread0.memOrderViolation         7564                       # Number of memory ordering violations
system.cpu.iew.lsq.thread0.rescheduledLoads           15                       # Number of loads that were rescheduled
system.cpu.iew.lsq.thread0.squashedLoads       640262                       # Number of loads squashed
system.cpu.iew.lsq.thread0.squashedStores       897042                       # Number of stores squashed
system.cpu.iew.memOrderViolationEvents           7564                       # Number of memory order violations
system.cpu.iew.predictedNotTakenIncorrect       214709                       # Number of branches that were predicted not taken incorrectly
system.cpu.iew.predictedTakenIncorrect         261033                       # Number of branches that were predicted taken incorrectly
system.cpu.iew.wb_consumers                 149553647                       # num instructions consuming a value
system.cpu.iew.wb_count                     100848576                       # cumulative count of insts written-back
system.cpu.iew.wb_fanout                     0.487231                       # average fanout of values written-back
system.cpu.iew.wb_producers                  72867112                       # num instructions producing a value
system.cpu.iew.wb_rate                       1.201773                       # insts written-back per cycle
system.cpu.iew.wb_sent                      100854733                       # cumulative count of insts sent to commit
system.cpu.int_regfile_reads                134200304                       # number of integer regfile reads
system.cpu.int_regfile_writes                58457760                       # number of integer regfile writes
system.cpu.ipc                               1.191661                       # IPC: Instructions Per Cycle
system.cpu.ipc_total                         1.191661                       # IPC: Total IPC of All Threads
system.cpu.iq.FU_type_0::No_OpClass                 7      0.00%      0.00% # Type of FU issued
system.cpu.iq.FU_type_0::IntAlu              62232449     61.13%     61.13% # Type of FU issued
system.cpu.iq.FU_type_0::IntMult                   11      0.00%     61.13% # Type of FU issued
system.cpu.iq.FU_type_0::IntDiv                     0      0.00%     61.13% # Type of FU issued
system.cpu.iq.FU_type_0::FloatAdd                   0      0.00%     61.13% # Type of FU issued
system.cpu.iq.FU_type_0::FloatCmp                   0      0.00%     61.13% # Type of FU issued
system.cpu.iq.FU_type_0::FloatCvt                   0      0.00%     61.13% # Type of FU issued
system.cpu.iq.FU_type_0::FloatMult                  0      0.00%     61.13% # Type of FU issued
system.cpu.iq.FU_type_0::FloatMultAcc               0      0.00%     61.13% # Type of FU issued
system.cpu.iq.FU_type_0::FloatDiv                   0      0.00%     61.13% # Type of FU issued
system.cpu.iq.FU_type_0::FloatMisc                  0      0.00%     61.13% # Type of FU issued
system.cpu.iq.FU_type_0::FloatSqrt                  0      0.00%     61.13% # Type of FU issued
system.cpu.iq.FU_type_0::SimdAdd                    0      0.00%     61.13% # Type of FU issued
system.cpu.iq.FU_type_0::SimdAddAcc                 0      0.00%     61.13% # Type of FU issued
system.cpu.iq.FU_type_0::SimdAlu                    0      0.00%     61.13% # Type of FU issued
system.cpu.iq.FU_type_0::SimdCmp                    0      0.00%     61.13% # Type of FU issued
system.cpu.iq.FU_type_0::SimdCvt                    0      0.00%     61.13% # Type of FU issued
system.cpu.iq.FU_type_0::SimdMisc                   0      0.00%     61.13% # Type of FU issued
system.cpu.iq.FU_type_0::SimdMult                   0      0.00%     61.13% # Type of FU issued
system.cpu.iq.FU_type_0::SimdMultAcc                0      0.00%     61.13% # Type of FU issued
system.cpu.iq.FU_type_0::SimdShift                  0      0.00%     61.13% # Type of FU issued
system.cpu.iq.FU_type_0::SimdShiftAcc               0      0.00%     61.13% # Type of FU issued
system.cpu.iq.FU_type_0::SimdDiv                    0      0.00%     61.13% # Type of FU issued
system.cpu.iq.FU_type_0::SimdSqrt                   0      0.00%     61.13% # Type of FU issued
system.cpu.iq.FU_type_0::SimdFloatAdd               0      0.00%     61.13% # Type of FU issued
system.cpu.iq.FU_type_0::SimdFloatAlu               0      0.00%     61.13% # Type of FU issued
system.cpu.iq.FU_type_0::SimdFloatCmp               0      0.00%     61.13% # Type of FU issued
system.cpu.iq.FU_type_0::SimdFloatCvt               0      0.00%     61.13% # Type of FU issued
system.cpu.iq.FU_type_0::SimdFloatDiv               0      0.00%     61.13% # Type of FU issued
system.cpu.iq.FU_type_0::SimdFloatMisc              4      0.00%     61.13% # Type of FU issued
system.cpu.iq.FU_type_0::SimdFloatMult              0      0.00%     61.13% # Type of FU issued
system.cpu.iq.FU_type_0::SimdFloatMultAcc            0      0.00%     61.13% # Type of FU issued
system.cpu.iq.FU_type_0::SimdFloatSqrt              0      0.00%     61.13% # Type of FU issued
system.cpu.iq.FU_type_0::SimdReduceAdd              0      0.00%     61.13% # Type of FU issued
system.cpu.iq.FU_type_0::SimdReduceAlu              0      0.00%     61.13% # Type of FU issued
system.cpu.iq.FU_type_0::SimdReduceCmp              0      0.00%     61.13% # Type of FU issued
system.cpu.iq.FU_type_0::SimdFloatReduceAdd            0      0.00%     61.13% # Type of FU issued
system.cpu.iq.FU_type_0::SimdFloatReduceCmp            0      0.00%     61.13% # Type of FU issued
system.cpu.iq.FU_type_0::SimdAes                    0      0.00%     61.13% # Type of FU issued
system.cpu.iq.FU_type_0::SimdAesMix                 0      0.00%     61.13% # Type of FU issued
system.cpu.iq.FU_type_0::SimdSha1Hash               0      0.00%     61.13% # Type of FU issued
system.cpu.iq.FU_type_0::SimdSha1Hash2              0      0.00%     61.13% # Type of FU issued
system.cpu.iq.FU_type_0::SimdSha256Hash             0      0.00%     61.13% # Type of FU issued
system.cpu.iq.FU_type_0::SimdSha256Hash2            0      0.00%     61.13% # Type of FU issued
system.cpu.iq.FU_type_0::SimdShaSigma2              0      0.00%     61.13% # Type of FU issued
system.cpu.iq.FU_type_0::SimdShaSigma3              0      0.00%     61.13% # Type of FU issued
system.cpu.iq.FU_type_0::SimdPredAlu                0      0.00%     61.13% # Type of FU issued
system.cpu.iq.FU_type_0::MemRead             21023608     20.65%     81.78% # Type of FU issued
system.cpu.iq.FU_type_0::MemWrite            18545196     18.22%    100.00% # Type of FU issued
system.cpu.iq.FU_type_0::FloatMemRead               0      0.00%    100.00% # Type of FU issued
system.cpu.iq.FU_type_0::FloatMemWrite              0      0.00%    100.00% # Type of FU issued
system.cpu.iq.FU_type_0::IprAccess                  0      0.00%    100.00% # Type of FU issued
system.cpu.iq.FU_type_0::InstPrefetch               0      0.00%    100.00% # Type of FU issued
system.cpu.iq.FU_type_0::total              101801275                       # Type of FU issued
system.cpu.iq.fp_alu_accesses                       0                       # Number of floating point alu accesses
system.cpu.iq.fp_inst_queue_reads                   0                       # Number of floating instruction queue reads
system.cpu.iq.fp_inst_queue_wakeup_accesses            0                       # Number of floating instruction queue wakeup accesses
system.cpu.iq.fp_inst_queue_writes                  0                       # Number of floating instruction queue writes
system.cpu.iq.fu_busy_cnt                     6064617                       # FU busy when requested
system.cpu.iq.fu_busy_rate                   0.059573                       # FU busy rate (busy events/executed inst)
system.cpu.iq.fu_full::No_OpClass                   0      0.00%      0.00% # attempts to use FU when none available
system.cpu.iq.fu_full::IntAlu                 3260978     53.77%     53.77% # attempts to use FU when none available
system.cpu.iq.fu_full::IntMult                      0      0.00%     53.77% # attempts to use FU when none available
system.cpu.iq.fu_full::IntDiv                       0      0.00%     53.77% # attempts to use FU when none available
system.cpu.iq.fu_full::FloatAdd                     0      0.00%     53.77% # attempts to use FU when none available
system.cpu.iq.fu_full::FloatCmp                     0      0.00%     53.77% # attempts to use FU when none available
system.cpu.iq.fu_full::FloatCvt                     0      0.00%     53.77% # attempts to use FU when none available
system.cpu.iq.fu_full::FloatMult                    0      0.00%     53.77% # attempts to use FU when none available
system.cpu.iq.fu_full::FloatMultAcc                 0      0.00%     53.77% # attempts to use FU when none available
system.cpu.iq.fu_full::FloatDiv                     0      0.00%     53.77% # attempts to use FU when none available
system.cpu.iq.fu_full::FloatMisc                    0      0.00%     53.77% # attempts to use FU when none available
system.cpu.iq.fu_full::FloatSqrt                    0      0.00%     53.77% # attempts to use FU when none available
system.cpu.iq.fu_full::SimdAdd                      0      0.00%     53.77% # attempts to use FU when none available
system.cpu.iq.fu_full::SimdAddAcc                   0      0.00%     53.77% # attempts to use FU when none available
system.cpu.iq.fu_full::SimdAlu                      0      0.00%     53.77% # attempts to use FU when none available
system.cpu.iq.fu_full::SimdCmp                      0      0.00%     53.77% # attempts to use FU when none available
system.cpu.iq.fu_full::SimdCvt                      0      0.00%     53.77% # attempts to use FU when none available
system.cpu.iq.fu_full::SimdMisc                     0      0.00%     53.77% # attempts to use FU when none available
system.cpu.iq.fu_full::SimdMult                     0      0.00%     53.77% # attempts to use FU when none available
system.cpu.iq.fu_full::SimdMultAcc                  0      0.00%     53.77% # attempts to use FU when none available
system.cpu.iq.fu_full::SimdShift                    0      0.00%     53.77% # attempts to use FU when none available
system.cpu.iq.fu_full::SimdShiftAcc                 0      0.00%     53.77% # attempts to use FU when none available
system.cpu.iq.fu_full::SimdDiv                      0      0.00%     53.77% # attempts to use FU when none available
system.cpu.iq.fu_full::SimdSqrt                     0      0.00%     53.77% # attempts to use FU when none available
system.cpu.iq.fu_full::SimdFloatAdd                 0      0.00%     53.77% # attempts to use FU when none available
system.cpu.iq.fu_full::SimdFloatAlu                 0      0.00%     53.77% # attempts to use FU when none available
system.cpu.iq.fu_full::SimdFloatCmp                 0      0.00%     53.77% # attempts to use FU when none available
system.cpu.iq.fu_full::SimdFloatCvt                 0      0.00%     53.77% # attempts to use FU when none available
system.cpu.iq.fu_full::SimdFloatDiv                 0      0.00%     53.77% # attempts to use FU when none available
system.cpu.iq.fu_full::SimdFloatMisc                0      0.00%     53.77% # attempts to use FU when none available
system.cpu.iq.fu_full::SimdFloatMult                0      0.00%     53.77% # attempts to use FU when none available
system.cpu.iq.fu_full::SimdFloatMultAcc             0      0.00%     53.77% # attempts to use FU when none available
system.cpu.iq.fu_full::SimdFloatSqrt                0      0.00%     53.77% # attempts to use FU when none available
system.cpu.iq.fu_full::SimdReduceAdd                0      0.00%     53.77% # attempts to use FU when none available
system.cpu.iq.fu_full::SimdReduceAlu                0      0.00%     53.77% # attempts to use FU when none available
system.cpu.iq.fu_full::SimdReduceCmp                0      0.00%     53.77% # attempts to use FU when none available
system.cpu.iq.fu_full::SimdFloatReduceAdd            0      0.00%     53.77% # attempts to use FU when none available
system.cpu.iq.fu_full::SimdFloatReduceCmp            0      0.00%     53.77% # attempts to use FU when none available
system.cpu.iq.fu_full::SimdAes                      0      0.00%     53.77% # attempts to use FU when none available
system.cpu.iq.fu_full::SimdAesMix                   0      0.00%     53.77% # attempts to use FU when none available
system.cpu.iq.fu_full::SimdSha1Hash                 0      0.00%     53.77% # attempts to use FU when none available
system.cpu.iq.fu_full::SimdSha1Hash2                0      0.00%     53.77% # attempts to use FU when none available
system.cpu.iq.fu_full::SimdSha256Hash               0      0.00%     53.77% # attempts to use FU when none available
system.cpu.iq.fu_full::SimdSha256Hash2              0      0.00%     53.77% # attempts to use FU when none available
system.cpu.iq.fu_full::SimdShaSigma2                0      0.00%     53.77% # attempts to use FU when none available
system.cpu.iq.fu_full::SimdShaSigma3                0      0.00%     53.77% # attempts to use FU when none available
system.cpu.iq.fu_full::SimdPredAlu                  0      0.00%     53.77% # attempts to use FU when none available
system.cpu.iq.fu_full::MemRead                1913480     31.55%     85.32% # attempts to use FU when none available
system.cpu.iq.fu_full::MemWrite                890159     14.68%    100.00% # attempts to use FU when none available
system.cpu.iq.fu_full::FloatMemRead                 0      0.00%    100.00% # attempts to use FU when none available
system.cpu.iq.fu_full::FloatMemWrite                0      0.00%    100.00% # attempts to use FU when none available
system.cpu.iq.fu_full::IprAccess                    0      0.00%    100.00% # attempts to use FU when none available
system.cpu.iq.fu_full::InstPrefetch                 0      0.00%    100.00% # attempts to use FU when none available
system.cpu.iq.int_alu_accesses              107865885                       # Number of integer alu accesses
system.cpu.iq.int_inst_queue_reads          293793151                       # Number of integer instruction queue reads
system.cpu.iq.int_inst_queue_wakeup_accesses    100848576                       # Number of integer instruction queue wakeup accesses
system.cpu.iq.int_inst_queue_writes         106967989                       # Number of integer instruction queue writes
system.cpu.iq.iqInstsAdded                  103481192                       # Number of instructions added to the IQ (excludes non-spec)
system.cpu.iq.iqInstsIssued                 101801275                       # Number of instructions issued
system.cpu.iq.iqNonSpecInstsAdded                  52                       # Number of non-speculative instructions added to the IQ
system.cpu.iq.iqSquashedInstsExamined         3479181                       # Number of squashed instructions iterated over during squash; mainly for profiling
system.cpu.iq.iqSquashedInstsIssued            233489                       # Number of squashed instructions issued
system.cpu.iq.iqSquashedNonSpecRemoved              2                       # Number of squashed non-spec instructions that were removed
system.cpu.iq.iqSquashedOperandsExamined     11669644                       # Number of squashed operands that are examined and possibly removed from graph
system.cpu.iq.issued_per_cycle::samples      83892498                       # Number of insts issued each cycle
system.cpu.iq.issued_per_cycle::mean         1.213473                       # Number of insts issued each cycle
system.cpu.iq.issued_per_cycle::stdev        0.894901                       # Number of insts issued each cycle
system.cpu.iq.issued_per_cycle::underflows            0      0.00%      0.00% # Number of insts issued each cycle
system.cpu.iq.issued_per_cycle::0            18700752     22.29%     22.29% # Number of insts issued each cycle
system.cpu.iq.issued_per_cycle::1            36037557     42.96%     65.25% # Number of insts issued each cycle
system.cpu.iq.issued_per_cycle::2            22092420     26.33%     91.58% # Number of insts issued each cycle
system.cpu.iq.issued_per_cycle::3             6668198      7.95%     99.53% # Number of insts issued each cycle
system.cpu.iq.issued_per_cycle::4              393571      0.47%    100.00% # Number of insts issued each cycle
system.cpu.iq.issued_per_cycle::5                   0      0.00%    100.00% # Number of insts issued each cycle
system.cpu.iq.issued_per_cycle::6                   0      0.00%    100.00% # Number of insts issued each cycle
system.cpu.iq.issued_per_cycle::7                   0      0.00%    100.00% # Number of insts issued each cycle
system.cpu.iq.issued_per_cycle::8                   0      0.00%    100.00% # Number of insts issued each cycle
system.cpu.iq.issued_per_cycle::overflows            0      0.00%    100.00% # Number of insts issued each cycle
system.cpu.iq.issued_per_cycle::min_value            0                       # Number of insts issued each cycle
system.cpu.iq.issued_per_cycle::max_value            4                       # Number of insts issued each cycle
system.cpu.iq.issued_per_cycle::total        83892498                       # Number of insts issued each cycle
system.cpu.iq.rate                           1.213126                       # Inst issue rate
system.cpu.iq.vec_alu_accesses                      0                       # Number of vector alu accesses
system.cpu.iq.vec_inst_queue_reads                  0                       # Number of vector instruction queue reads
system.cpu.iq.vec_inst_queue_wakeup_accesses            0                       # Number of vector instruction queue wakeup accesses
system.cpu.iq.vec_inst_queue_writes                 0                       # Number of vector instruction queue writes
system.cpu.itb.accesses                             0                       # DTB accesses
system.cpu.itb.align_faults                         0                       # Number of TLB faults due to alignment restrictions
system.cpu.itb.domain_faults                        0                       # Number of TLB faults due to domain restrictions
system.cpu.itb.flush_entries                        0                       # Number of entries that have been flushed from TLB
system.cpu.itb.flush_tlb                            0                       # Number of times complete TLB was flushed
system.cpu.itb.flush_tlb_asid                       0                       # Number of times TLB was flushed by ASID
system.cpu.itb.flush_tlb_mva                        0                       # Number of times TLB was flushed by MVA
system.cpu.itb.flush_tlb_mva_asid                   0                       # Number of times TLB was flushed by MVA & ASID
system.cpu.itb.hits                                 0                       # DTB hits
system.cpu.itb.inst_accesses                        0                       # ITB inst accesses
system.cpu.itb.inst_hits                            0                       # ITB inst hits
system.cpu.itb.inst_misses                          0                       # ITB inst misses
system.cpu.itb.misses                               0                       # DTB misses
system.cpu.itb.perms_faults                         0                       # Number of TLB faults due to permissions restrictions
system.cpu.itb.prefetch_faults                      0                       # Number of TLB faults due to prefetch
system.cpu.itb.read_accesses                        0                       # DTB read accesses
system.cpu.itb.read_hits                            0                       # DTB read hits
system.cpu.itb.read_misses                          0                       # DTB read misses
system.cpu.itb.stage2_mmu.stage2_tlb.accesses            0                       # DTB accesses
system.cpu.itb.stage2_mmu.stage2_tlb.align_faults            0                       # Number of TLB faults due to alignment restrictions
system.cpu.itb.stage2_mmu.stage2_tlb.domain_faults            0                       # Number of TLB faults due to domain restrictions
system.cpu.itb.stage2_mmu.stage2_tlb.flush_entries            0                       # Number of entries that have been flushed from TLB
system.cpu.itb.stage2_mmu.stage2_tlb.flush_tlb            0                       # Number of times complete TLB was flushed
system.cpu.itb.stage2_mmu.stage2_tlb.flush_tlb_asid            0                       # Number of times TLB was flushed by ASID
system.cpu.itb.stage2_mmu.stage2_tlb.flush_tlb_mva            0                       # Number of times TLB was flushed by MVA
system.cpu.itb.stage2_mmu.stage2_tlb.flush_tlb_mva_asid            0                       # Number of times TLB was flushed by MVA & ASID
system.cpu.itb.stage2_mmu.stage2_tlb.hits            0                       # DTB hits
system.cpu.itb.stage2_mmu.stage2_tlb.inst_accesses            0                       # ITB inst accesses
system.cpu.itb.stage2_mmu.stage2_tlb.inst_hits            0                       # ITB inst hits
system.cpu.itb.stage2_mmu.stage2_tlb.inst_misses            0                       # ITB inst misses
system.cpu.itb.stage2_mmu.stage2_tlb.misses            0                       # DTB misses
system.cpu.itb.stage2_mmu.stage2_tlb.perms_faults            0                       # Number of TLB faults due to permissions restrictions
system.cpu.itb.stage2_mmu.stage2_tlb.prefetch_faults            0                       # Number of TLB faults due to prefetch
system.cpu.itb.stage2_mmu.stage2_tlb.read_accesses            0                       # DTB read accesses
system.cpu.itb.stage2_mmu.stage2_tlb.read_hits            0                       # DTB read hits
system.cpu.itb.stage2_mmu.stage2_tlb.read_misses            0                       # DTB read misses
system.cpu.itb.stage2_mmu.stage2_tlb.walker.walkRequestOrigin_Requested::Data            0                       # Table walker requests started/completed, data/inst
system.cpu.itb.stage2_mmu.stage2_tlb.walker.walkRequestOrigin_Requested::Inst            0                       # Table walker requests started/completed, data/inst
system.cpu.itb.stage2_mmu.stage2_tlb.walker.walkRequestOrigin_Requested::total            0                       # Table walker requests started/completed, data/inst
system.cpu.itb.stage2_mmu.stage2_tlb.walker.walkRequestOrigin_Completed::Data            0                       # Table walker requests started/completed, data/inst
system.cpu.itb.stage2_mmu.stage2_tlb.walker.walkRequestOrigin_Completed::Inst            0                       # Table walker requests started/completed, data/inst
system.cpu.itb.stage2_mmu.stage2_tlb.walker.walkRequestOrigin_Completed::total            0                       # Table walker requests started/completed, data/inst
system.cpu.itb.stage2_mmu.stage2_tlb.walker.walkRequestOrigin::total            0                       # Table walker requests started/completed, data/inst
system.cpu.itb.stage2_mmu.stage2_tlb.walker.walks            0                       # Table walker walks requested
system.cpu.itb.stage2_mmu.stage2_tlb.write_accesses            0                       # DTB write accesses
system.cpu.itb.stage2_mmu.stage2_tlb.write_hits            0                       # DTB write hits
system.cpu.itb.stage2_mmu.stage2_tlb.write_misses            0                       # DTB write misses
system.cpu.itb.walker.walkRequestOrigin_Requested::Data            0                       # Table walker requests started/completed, data/inst
system.cpu.itb.walker.walkRequestOrigin_Requested::Inst            0                       # Table walker requests started/completed, data/inst
system.cpu.itb.walker.walkRequestOrigin_Requested::total            0                       # Table walker requests started/completed, data/inst
system.cpu.itb.walker.walkRequestOrigin_Completed::Data            0                       # Table walker requests started/completed, data/inst
system.cpu.itb.walker.walkRequestOrigin_Completed::Inst            0                       # Table walker requests started/completed, data/inst
system.cpu.itb.walker.walkRequestOrigin_Completed::total            0                       # Table walker requests started/completed, data/inst
system.cpu.itb.walker.walkRequestOrigin::total            0                       # Table walker requests started/completed, data/inst
system.cpu.itb.walker.walks                         0                       # Table walker walks requested
system.cpu.itb.write_accesses                       0                       # DTB write accesses
system.cpu.itb.write_hits                           0                       # DTB write hits
system.cpu.itb.write_misses                         0                       # DTB write misses
system.cpu.memDep0.conflictingLoads          11588327                       # Number of conflicting loads.
system.cpu.memDep0.conflictingStores          4104947                       # Number of conflicting stores.
system.cpu.memDep0.insertedLoads             21299699                       # Number of loads inserted to the mem dependence unit.
system.cpu.memDep0.insertedStores            19007236                       # Number of stores inserted to the mem dependence unit.
system.cpu.misc_regfile_reads                36543443                       # number of misc regfile reads
system.cpu.misc_regfile_writes                     78                       # number of misc regfile writes
system.cpu.numCycles                         83916468                       # number of cpu cycles simulated
system.cpu.numWorkItemsCompleted                    0                       # number of work items this cpu completed
system.cpu.numWorkItemsStarted                      0                       # number of work items this cpu started
system.cpu.rename.BlockCycles                17608697                       # Number of cycles rename is blocking
system.cpu.rename.CommittedMaps             100127232                       # Number of HB maps that are committed
system.cpu.rename.IQFullEvents                3487875                       # Number of times rename has blocked due to IQ full
system.cpu.rename.IdleCycles                 13865055                       # Number of cycles rename is idle
system.cpu.rename.LQFullEvents                      6                       # Number of times rename has blocked due to LQ full
system.cpu.rename.ROBFullEvents              12345659                       # Number of times rename has blocked due to ROB full
system.cpu.rename.RenameLookups             501488052                       # Number of register rename lookups that rename has made
system.cpu.rename.RenamedInsts              104131227                       # Number of instructions processed by rename
system.cpu.rename.RenamedOperands           103889776                       # Number of destination operands rename has renamed
system.cpu.rename.RunCycles                  33243833                       # Number of cycles rename is running
system.cpu.rename.SQFullEvents                   3950                       # Number of times rename has blocked due to SQ full
system.cpu.rename.SquashCycles                 481864                       # Number of cycles rename is squashing
system.cpu.rename.SquashedInsts                778225                       # Number of squashed instructions processed by rename
system.cpu.rename.UnblockCycles              18691700                       # Number of cycles rename is unblocking
system.cpu.rename.UndoneMaps                  3762508                       # Number of HB maps that are undone due to squashing
system.cpu.rename.int_rename_lookups        148584908                       # Number of integer rename lookups
system.cpu.rename.serializeStallCycles           1349                       # count of cycles rename stalled for serializing inst
system.cpu.rename.serializingInsts                 35                       # count of serializing insts renamed
system.cpu.rename.skidInsts                  25301984                       # count of insts added to the skid buffer
system.cpu.rename.tempSerializingInsts             32                       # count of temporary serializing insts renamed
system.cpu.rename.vec_rename_lookups               32                       # Number of vector rename lookups
system.cpu.rob.rob_reads                    181450592                       # The number of ROB reads
system.cpu.rob.rob_writes                   205558486                       # The number of ROB writes
system.cpu.timesIdled                             367                       # Number of times that the entire CPU went into an idle state and unscheduled itself
system.cpu.vec_regfile_reads                       32                       # number of vector regfile reads
system.cpu.workload.numSyscalls                    10                       # Number of system calls
system.membus.snoop_filter.hit_multi_requests            9                       # Number of requests hitting in the snoop filter with multiple (>1) holders of the requested data.
system.membus.snoop_filter.hit_multi_snoops            0                       # Number of snoops hitting in the snoop filter with multiple (>1) holders of the requested data.
system.membus.snoop_filter.hit_single_requests           86                       # Number of requests hitting in the snoop filter with a single holder of the requested data.
system.membus.snoop_filter.hit_single_snoops            0                       # Number of snoops hitting in the snoop filter with a single holder of the requested data.
system.membus.snoop_filter.tot_requests           805                       # Total number of requests made to the snoop filter.
system.membus.snoop_filter.tot_snoops               0                       # Total number of snoops made to the snoop filter.
system.membus.pwrStateResidencyTicks::UNDEFINED  52447791875                       # Cumulative time (in ticks) in various power states
system.membus.trans_dist::ReadResp                625                       # Transaction distribution
system.membus.trans_dist::WritebackClean           60                       # Transaction distribution
system.membus.trans_dist::ReadExReq               120                       # Transaction distribution
system.membus.trans_dist::ReadExResp              120                       # Transaction distribution
system.membus.trans_dist::ReadCleanReq            489                       # Transaction distribution
system.membus.trans_dist::ReadSharedReq           136                       # Transaction distribution
system.membus.pkt_count_system.cpu.icache.mem_side::system.mem_ctrls.port         1035                       # Packet count per connected master and slave (bytes)
system.membus.pkt_count_system.cpu.dcache.mem_side::system.mem_ctrls.port          515                       # Packet count per connected master and slave (bytes)
system.membus.pkt_count::total                   1550                       # Packet count per connected master and slave (bytes)
system.membus.pkt_size_system.cpu.icache.mem_side::system.mem_ctrls.port        34944                       # Cumulative packet size per connected master and slave (bytes)
system.membus.pkt_size_system.cpu.dcache.mem_side::system.mem_ctrls.port        16576                       # Cumulative packet size per connected master and slave (bytes)
system.membus.pkt_size::total                   51520                       # Cumulative packet size per connected master and slave (bytes)
system.membus.snoops                                0                       # Total snoops (count)
system.membus.snoopTraffic                          0                       # Total snoop traffic (bytes)
system.membus.snoop_fanout::samples               745                       # Request fanout histogram
system.membus.snoop_fanout::mean             0.046980                       # Request fanout histogram
system.membus.snoop_fanout::stdev            0.211738                       # Request fanout histogram
system.membus.snoop_fanout::underflows              0      0.00%      0.00% # Request fanout histogram
system.membus.snoop_fanout::0                     710     95.30%     95.30% # Request fanout histogram
system.membus.snoop_fanout::1                      35      4.70%    100.00% # Request fanout histogram
system.membus.snoop_fanout::2                       0      0.00%    100.00% # Request fanout histogram
system.membus.snoop_fanout::3                       0      0.00%    100.00% # Request fanout histogram
system.membus.snoop_fanout::4                       0      0.00%    100.00% # Request fanout histogram
system.membus.snoop_fanout::overflows               0      0.00%    100.00% # Request fanout histogram
system.membus.snoop_fanout::min_value               0                       # Request fanout histogram
system.membus.snoop_fanout::max_value               1                       # Request fanout histogram
system.membus.snoop_fanout::total                 745                       # Request fanout histogram
system.membus.reqLayer0.occupancy             1364125                       # Layer occupancy (ticks)
system.membus.reqLayer0.utilization               0.0                       # Layer utilization (%)
system.membus.respLayer1.occupancy            2596750                       # Layer occupancy (ticks)
system.membus.respLayer1.utilization              0.0                       # Layer utilization (%)
system.membus.respLayer2.occupancy            1384500                       # Layer occupancy (ticks)
system.membus.respLayer2.utilization              0.0                       # Layer utilization (%)
system.voltage_domain.voltage                       1                       # Voltage in Volts
system.clk_domain.clock                          1000                       # Clock period in ticks
system.cpu_voltage_domain.voltage                   1                       # Voltage in Volts
system.mem_ctrls.pwrStateResidencyTicks::UNDEFINED  52447791875                       # Cumulative time (in ticks) in various power states
system.mem_ctrls.bytes_read::.cpu.inst          31296                       # Number of bytes read from this memory
system.mem_ctrls.bytes_read::.cpu.data          16384                       # Number of bytes read from this memory
system.mem_ctrls.bytes_read::total              47680                       # Number of bytes read from this memory
system.mem_ctrls.bytes_inst_read::.cpu.inst        31296                       # Number of instructions bytes read from this memory
system.mem_ctrls.bytes_inst_read::total         31296                       # Number of instructions bytes read from this memory
system.mem_ctrls.num_reads::.cpu.inst             489                       # Number of read requests responded to by this memory
system.mem_ctrls.num_reads::.cpu.data             256                       # Number of read requests responded to by this memory
system.mem_ctrls.num_reads::total                 745                       # Number of read requests responded to by this memory
system.mem_ctrls.bw_read::.cpu.inst            596708                       # Total read bandwidth from this memory (bytes/s)
system.mem_ctrls.bw_read::.cpu.data            312387                       # Total read bandwidth from this memory (bytes/s)
system.mem_ctrls.bw_read::total                909095                       # Total read bandwidth from this memory (bytes/s)
system.mem_ctrls.bw_inst_read::.cpu.inst       596708                       # Instruction read bandwidth from this memory (bytes/s)
system.mem_ctrls.bw_inst_read::total           596708                       # Instruction read bandwidth from this memory (bytes/s)
system.mem_ctrls.bw_total::.cpu.inst           596708                       # Total bandwidth to/from this memory (bytes/s)
system.mem_ctrls.bw_total::.cpu.data           312387                       # Total bandwidth to/from this memory (bytes/s)
system.mem_ctrls.bw_total::total               909095                       # Total bandwidth to/from this memory (bytes/s)
system.mem_ctrls.avgPriority_.writebacks::samples        51.00                       # Average QoS priority value for accepted requests
system.mem_ctrls.avgPriority_.cpu.inst::samples       488.00                       # Average QoS priority value for accepted requests
system.mem_ctrls.avgPriority_.cpu.data::samples       256.00                       # Average QoS priority value for accepted requests
system.mem_ctrls.priorityMinLatency      0.000000018750                       # per QoS priority minimum request to response latency (s)
system.mem_ctrls.priorityMaxLatency      0.001017360000                       # per QoS priority maximum request to response latency (s)
system.mem_ctrls.numReadWriteTurnArounds            2                       # Number of turnarounds from READ to WRITE
system.mem_ctrls.numWriteReadTurnArounds            2                       # Number of turnarounds from WRITE to READ
system.mem_ctrls.numStayReadState               14979                       # Number of times bus staying in READ state
system.mem_ctrls.numStayWriteState                 30                       # Number of times bus staying in WRITE state
system.mem_ctrls.readReqs                         745                       # Number of read requests accepted
system.mem_ctrls.writeReqs                         51                       # Number of write requests accepted
system.mem_ctrls.readBursts                       745                       # Number of DRAM read bursts, including those serviced by the write queue
system.mem_ctrls.writeBursts                       51                       # Number of DRAM write bursts, including those merged in the write queue
system.mem_ctrls.servicedByWrQ                      1                       # Number of DRAM read bursts serviced by the write queue
system.mem_ctrls.mergedWrBursts                     0                       # Number of DRAM write bursts merged with an existing one
system.mem_ctrls.neitherReadNorWriteReqs            0                       # Number of requests that are neither read nor write
system.mem_ctrls.perBankRdBursts::0                81                       # Per bank write bursts
system.mem_ctrls.perBankRdBursts::1                26                       # Per bank write bursts
system.mem_ctrls.perBankRdBursts::2                70                       # Per bank write bursts
system.mem_ctrls.perBankRdBursts::3                29                       # Per bank write bursts
system.mem_ctrls.perBankRdBursts::4                79                       # Per bank write bursts
system.mem_ctrls.perBankRdBursts::5                57                       # Per bank write bursts
system.mem_ctrls.perBankRdBursts::6                44                       # Per bank write bursts
system.mem_ctrls.perBankRdBursts::7                54                       # Per bank write bursts
system.mem_ctrls.perBankRdBursts::8               127                       # Per bank write bursts
system.mem_ctrls.perBankRdBursts::9                27                       # Per bank write bursts
system.mem_ctrls.perBankRdBursts::10               30                       # Per bank write bursts
system.mem_ctrls.perBankRdBursts::11               29                       # Per bank write bursts
system.mem_ctrls.perBankRdBursts::12               63                       # Per bank write bursts
system.mem_ctrls.perBankRdBursts::13                0                       # Per bank write bursts
system.mem_ctrls.perBankRdBursts::14               10                       # Per bank write bursts
system.mem_ctrls.perBankRdBursts::15               18                       # Per bank write bursts
system.mem_ctrls.perBankWrBursts::0                 0                       # Per bank write bursts
system.mem_ctrls.perBankWrBursts::1                 0                       # Per bank write bursts
system.mem_ctrls.perBankWrBursts::2                 0                       # Per bank write bursts
system.mem_ctrls.perBankWrBursts::3                 0                       # Per bank write bursts
system.mem_ctrls.perBankWrBursts::4                 4                       # Per bank write bursts
system.mem_ctrls.perBankWrBursts::5                 0                       # Per bank write bursts
system.mem_ctrls.perBankWrBursts::6                 0                       # Per bank write bursts
system.mem_ctrls.perBankWrBursts::7                 0                       # Per bank write bursts
system.mem_ctrls.perBankWrBursts::8                 7                       # Per bank write bursts
system.mem_ctrls.perBankWrBursts::9                 2                       # Per bank write bursts
system.mem_ctrls.perBankWrBursts::10                0                       # Per bank write bursts
system.mem_ctrls.perBankWrBursts::11                1                       # Per bank write bursts
system.mem_ctrls.perBankWrBursts::12                8                       # Per bank write bursts
system.mem_ctrls.perBankWrBursts::13                0                       # Per bank write bursts
system.mem_ctrls.perBankWrBursts::14                4                       # Per bank write bursts
system.mem_ctrls.perBankWrBursts::15                6                       # Per bank write bursts
system.mem_ctrls.avgRdQLen                       1.00                       # Average read queue length when enqueuing
system.mem_ctrls.avgWrQLen                      19.12                       # Average write queue length when enqueuing
system.mem_ctrls.totQLat                      8573000                       # Total ticks spent queuing
system.mem_ctrls.totBusLat                    3720000                       # Total ticks spent in databus transfers
system.mem_ctrls.totMemAccLat                22523000                       # Total ticks spent from burst creation until serviced by the DRAM
system.mem_ctrls.avgQLat                     11522.85                       # Average queueing delay per DRAM burst
system.mem_ctrls.avgBusLat                    5000.00                       # Average bus latency per DRAM burst
system.mem_ctrls.avgMemAccLat                30272.85                       # Average memory access latency per DRAM burst
system.mem_ctrls.numRdRetry                         0                       # Number of times read queue was full causing retry
system.mem_ctrls.numWrRetry                         0                       # Number of times write queue was full causing retry
system.mem_ctrls.readRowHits                      564                       # Number of row buffer hits during reads
system.mem_ctrls.writeRowHits                      22                       # Number of row buffer hits during writes
system.mem_ctrls.readRowHitRate                 75.81                       # Row buffer hit rate for reads
system.mem_ctrls.writeRowHitRate                43.14                       # Row buffer hit rate for writes
system.mem_ctrls.readPktSize::0                     0                       # Read request sizes (log2)
system.mem_ctrls.readPktSize::1                     0                       # Read request sizes (log2)
system.mem_ctrls.readPktSize::2                     0                       # Read request sizes (log2)
system.mem_ctrls.readPktSize::3                     0                       # Read request sizes (log2)
system.mem_ctrls.readPktSize::4                     0                       # Read request sizes (log2)
system.mem_ctrls.readPktSize::5                     0                       # Read request sizes (log2)
system.mem_ctrls.readPktSize::6                   745                       # Read request sizes (log2)
system.mem_ctrls.writePktSize::0                    0                       # Write request sizes (log2)
system.mem_ctrls.writePktSize::1                    0                       # Write request sizes (log2)
system.mem_ctrls.writePktSize::2                    0                       # Write request sizes (log2)
system.mem_ctrls.writePktSize::3                    0                       # Write request sizes (log2)
system.mem_ctrls.writePktSize::4                    0                       # Write request sizes (log2)
system.mem_ctrls.writePktSize::5                    0                       # Write request sizes (log2)
system.mem_ctrls.writePktSize::6                   51                       # Write request sizes (log2)
system.mem_ctrls.rdQLenPdf::0                     478                       # What read queue length does an incoming req see
system.mem_ctrls.rdQLenPdf::1                     198                       # What read queue length does an incoming req see
system.mem_ctrls.rdQLenPdf::2                      49                       # What read queue length does an incoming req see
system.mem_ctrls.rdQLenPdf::3                      15                       # What read queue length does an incoming req see
system.mem_ctrls.rdQLenPdf::4                       2                       # What read queue length does an incoming req see
system.mem_ctrls.rdQLenPdf::5                       1                       # What read queue length does an incoming req see
system.mem_ctrls.rdQLenPdf::6                       1                       # What read queue length does an incoming req see
system.mem_ctrls.rdQLenPdf::7                       0                       # What read queue length does an incoming req see
system.mem_ctrls.rdQLenPdf::8                       0                       # What read queue length does an incoming req see
system.mem_ctrls.rdQLenPdf::9                       0                       # What read queue length does an incoming req see
system.mem_ctrls.rdQLenPdf::10                      0                       # What read queue length does an incoming req see
system.mem_ctrls.rdQLenPdf::11                      0                       # What read queue length does an incoming req see
system.mem_ctrls.rdQLenPdf::12                      0                       # What read queue length does an incoming req see
system.mem_ctrls.rdQLenPdf::13                      0                       # What read queue length does an incoming req see
system.mem_ctrls.rdQLenPdf::14                      0                       # What read queue length does an incoming req see
system.mem_ctrls.rdQLenPdf::15                      0                       # What read queue length does an incoming req see
system.mem_ctrls.rdQLenPdf::16                      0                       # What read queue length does an incoming req see
system.mem_ctrls.rdQLenPdf::17                      0                       # What read queue length does an incoming req see
system.mem_ctrls.rdQLenPdf::18                      0                       # What read queue length does an incoming req see
system.mem_ctrls.rdQLenPdf::19                      0                       # What read queue length does an incoming req see
system.mem_ctrls.rdQLenPdf::20                      0                       # What read queue length does an incoming req see
system.mem_ctrls.rdQLenPdf::21                      0                       # What read queue length does an incoming req see
system.mem_ctrls.rdQLenPdf::22                      0                       # What read queue length does an incoming req see
system.mem_ctrls.rdQLenPdf::23                      0                       # What read queue length does an incoming req see
system.mem_ctrls.rdQLenPdf::24                      0                       # What read queue length does an incoming req see
system.mem_ctrls.rdQLenPdf::25                      0                       # What read queue length does an incoming req see
system.mem_ctrls.rdQLenPdf::26                      0                       # What read queue length does an incoming req see
system.mem_ctrls.rdQLenPdf::27                      0                       # What read queue length does an incoming req see
system.mem_ctrls.rdQLenPdf::28                      0                       # What read queue length does an incoming req see
system.mem_ctrls.rdQLenPdf::29                      0                       # What read queue length does an incoming req see
system.mem_ctrls.rdQLenPdf::30                      0                       # What read queue length does an incoming req see
system.mem_ctrls.rdQLenPdf::31                      0                       # What read queue length does an incoming req see
system.mem_ctrls.wrQLenPdf::0                       1                       # What write queue length does an incoming req see
system.mem_ctrls.wrQLenPdf::1                       1                       # What write queue length does an incoming req see
system.mem_ctrls.wrQLenPdf::2                       1                       # What write queue length does an incoming req see
system.mem_ctrls.wrQLenPdf::3                       1                       # What write queue length does an incoming req see
system.mem_ctrls.wrQLenPdf::4                       1                       # What write queue length does an incoming req see
system.mem_ctrls.wrQLenPdf::5                       1                       # What write queue length does an incoming req see
system.mem_ctrls.wrQLenPdf::6                       1                       # What write queue length does an incoming req see
system.mem_ctrls.wrQLenPdf::7                       1                       # What write queue length does an incoming req see
system.mem_ctrls.wrQLenPdf::8                       1                       # What write queue length does an incoming req see
system.mem_ctrls.wrQLenPdf::9                       1                       # What write queue length does an incoming req see
system.mem_ctrls.wrQLenPdf::10                      1                       # What write queue length does an incoming req see
system.mem_ctrls.wrQLenPdf::11                      1                       # What write queue length does an incoming req see
system.mem_ctrls.wrQLenPdf::12                      1                       # What write queue length does an incoming req see
system.mem_ctrls.wrQLenPdf::13                      1                       # What write queue length does an incoming req see
system.mem_ctrls.wrQLenPdf::14                      1                       # What write queue length does an incoming req see
system.mem_ctrls.wrQLenPdf::15                      1                       # What write queue length does an incoming req see
system.mem_ctrls.wrQLenPdf::16                      1                       # What write queue length does an incoming req see
system.mem_ctrls.wrQLenPdf::17                      3                       # What write queue length does an incoming req see
system.mem_ctrls.wrQLenPdf::18                      3                       # What write queue length does an incoming req see
system.mem_ctrls.wrQLenPdf::19                      2                       # What write queue length does an incoming req see
system.mem_ctrls.wrQLenPdf::20                      2                       # What write queue length does an incoming req see
system.mem_ctrls.wrQLenPdf::21                      2                       # What write queue length does an incoming req see
system.mem_ctrls.wrQLenPdf::22                      2                       # What write queue length does an incoming req see
[...]
system.cpu.dtb.stage2_mmu.stage2_tlb.walker.pwrStateResidencyTicks::UNDEFINED  52447791875                       # Cumulative time (in ticks) in various power states
system.cpu.itb_walker_cache.pwrStateResidencyTicks::UNDEFINED  52447791875                       # Cumulative time (in ticks) in various power states
system.cpu.itb_walker_cache.blocked_cycles::no_mshrs            0                       # number of cycles access was blocked
system.cpu.itb_walker_cache.blocked_cycles::no_targets            0                       # number of cycles access was blocked
system.cpu.itb_walker_cache.blocked::no_mshrs            0                       # number of cycles access was blocked
system.cpu.itb_walker_cache.blocked::no_targets            0                       # number of cycles access was blocked
system.cpu.itb_walker_cache.avg_blocked_cycles::no_mshrs          nan                       # average number of cycles each access was blocked
system.cpu.itb_walker_cache.avg_blocked_cycles::no_targets          nan                       # average number of cycles each access was blocked
system.cpu.itb_walker_cache.replacements            0                       # number of replacements
system.cpu.itb_walker_cache.tags.pwrStateResidencyTicks::UNDEFINED  52447791875                       # Cumulative time (in ticks) in various power states
system.cpu.itb_walker_cache.tags.tagsinuse            0                       # Cycle average of tags in use
system.cpu.itb_walker_cache.tags.total_refs            0                       # Total number of references to valid blocks.
system.cpu.itb_walker_cache.tags.sampled_refs            0                       # Sample count of references to valid blocks.
system.cpu.itb_walker_cache.tags.avg_refs          nan                       # Average number of references to valid blocks.
system.cpu.itb_walker_cache.tags.warmup_cycle            0                       # Cycle when the warmup percentage was hit.
system.cpu.itb_walker_cache.tags.tag_accesses            0                       # Number of tag accesses
system.cpu.itb_walker_cache.tags.data_accesses            0                       # Number of data accesses
system.cpu.itb.walker.pwrStateResidencyTicks::UNDEFINED  52447791875                       # Cumulative time (in ticks) in various power states
system.cpu.itb.stage2_mmu.stage2_tlb.walker.pwrStateResidencyTicks::UNDEFINED  52447791875                       # Cumulative time (in ticks) in various power states
system.cpu.dtb_walker_cache.pwrStateResidencyTicks::UNDEFINED  52447791875                       # Cumulative time (in ticks) in various power states
system.cpu.dtb_walker_cache.blocked_cycles::no_mshrs            0                       # number of cycles access was blocked
system.cpu.dtb_walker_cache.blocked_cycles::no_targets            0                       # number of cycles access was blocked
system.cpu.dtb_walker_cache.blocked::no_mshrs            0                       # number of cycles access was blocked
system.cpu.dtb_walker_cache.blocked::no_targets            0                       # number of cycles access was blocked
system.cpu.dtb_walker_cache.avg_blocked_cycles::no_mshrs          nan                       # average number of cycles each access was blocked
system.cpu.dtb_walker_cache.avg_blocked_cycles::no_targets          nan                       # average number of cycles each access was blocked
system.cpu.dtb_walker_cache.replacements            0                       # number of replacements
system.cpu.dtb_walker_cache.tags.pwrStateResidencyTicks::UNDEFINED  52447791875                       # Cumulative time (in ticks) in various power states
system.cpu.dtb_walker_cache.tags.tagsinuse            0                       # Cycle average of tags in use
system.cpu.dtb_walker_cache.tags.total_refs            0                       # Total number of references to valid blocks.
system.cpu.dtb_walker_cache.tags.sampled_refs            0                       # Sample count of references to valid blocks.
system.cpu.dtb_walker_cache.tags.avg_refs          nan                       # Average number of references to valid blocks.
system.cpu.dtb_walker_cache.tags.warmup_cycle            0                       # Cycle when the warmup percentage was hit.
system.cpu.dtb_walker_cache.tags.tag_accesses            0                       # Number of tag accesses
system.cpu.dtb_walker_cache.tags.data_accesses            0                       # Number of data accesses
system.cpu.dcache.pwrStateResidencyTicks::UNDEFINED  52447791875                       # Cumulative time (in ticks) in various power states
system.cpu.dcache.demand_hits::.cpu.data     20458504                       # number of demand (read+write) hits
system.cpu.dcache.demand_hits::total         20458504                       # number of demand (read+write) hits
system.cpu.dcache.overall_hits::.cpu.data     20458504                       # number of overall hits
system.cpu.dcache.overall_hits::total        20458504                       # number of overall hits
system.cpu.dcache.demand_misses::.cpu.data          884                       # number of demand (read+write) misses
system.cpu.dcache.demand_misses::total            884                       # number of demand (read+write) misses
system.cpu.dcache.overall_misses::.cpu.data          884                       # number of overall misses
system.cpu.dcache.overall_misses::total           884                       # number of overall misses
system.cpu.dcache.demand_miss_latency::.cpu.data     56707499                       # number of demand (read+write) miss cycles
system.cpu.dcache.demand_miss_latency::total     56707499                       # number of demand (read+write) miss cycles
system.cpu.dcache.overall_miss_latency::.cpu.data     56707499                       # number of overall miss cycles
system.cpu.dcache.overall_miss_latency::total     56707499                       # number of overall miss cycles
system.cpu.dcache.demand_accesses::.cpu.data     20459388                       # number of demand (read+write) accesses
system.cpu.dcache.demand_accesses::total     20459388                       # number of demand (read+write) accesses
system.cpu.dcache.overall_accesses::.cpu.data     20459388                       # number of overall (read+write) accesses
system.cpu.dcache.overall_accesses::total     20459388                       # number of overall (read+write) accesses
system.cpu.dcache.demand_miss_rate::.cpu.data     0.000043                       # miss rate for demand accesses
system.cpu.dcache.demand_miss_rate::total     0.000043                       # miss rate for demand accesses
system.cpu.dcache.overall_miss_rate::.cpu.data     0.000043                       # miss rate for overall accesses
system.cpu.dcache.overall_miss_rate::total     0.000043                       # miss rate for overall accesses
system.cpu.dcache.demand_avg_miss_latency::.cpu.data 64148.754525                       # average overall miss latency
system.cpu.dcache.demand_avg_miss_latency::total 64148.754525                       # average overall miss latency
system.cpu.dcache.overall_avg_miss_latency::.cpu.data 64148.754525                       # average overall miss latency
system.cpu.dcache.overall_avg_miss_latency::total 64148.754525                       # average overall miss latency
system.cpu.dcache.blocked_cycles::no_mshrs          126                       # number of cycles access was blocked
system.cpu.dcache.blocked_cycles::no_targets         3204                       # number of cycles access was blocked
system.cpu.dcache.blocked::no_mshrs                 4                       # number of cycles access was blocked
system.cpu.dcache.blocked::no_targets              47                       # number of cycles access was blocked
system.cpu.dcache.avg_blocked_cycles::no_mshrs    31.500000                       # average number of cycles each access was blocked
system.cpu.dcache.avg_blocked_cycles::no_targets    68.170213                       # average number of cycles each access was blocked
system.cpu.dcache.writebacks::.writebacks            3                       # number of writebacks
system.cpu.dcache.writebacks::total                 3                       # number of writebacks
system.cpu.dcache.demand_mshr_hits::.cpu.data          628                       # number of demand (read+write) MSHR hits
system.cpu.dcache.demand_mshr_hits::total          628                       # number of demand (read+write) MSHR hits
system.cpu.dcache.overall_mshr_hits::.cpu.data          628                       # number of overall MSHR hits
system.cpu.dcache.overall_mshr_hits::total          628                       # number of overall MSHR hits
system.cpu.dcache.demand_mshr_misses::.cpu.data          256                       # number of demand (read+write) MSHR misses
system.cpu.dcache.demand_mshr_misses::total          256                       # number of demand (read+write) MSHR misses
system.cpu.dcache.overall_mshr_misses::.cpu.data          256                       # number of overall MSHR misses
system.cpu.dcache.overall_mshr_misses::total          256                       # number of overall MSHR misses
system.cpu.dcache.demand_mshr_miss_latency::.cpu.data     17394124                       # number of demand (read+write) MSHR miss cycles
system.cpu.dcache.demand_mshr_miss_latency::total     17394124                       # number of demand (read+write) MSHR miss cycles
system.cpu.dcache.overall_mshr_miss_latency::.cpu.data     17394124                       # number of overall MSHR miss cycles
system.cpu.dcache.overall_mshr_miss_latency::total     17394124                       # number of overall MSHR miss cycles
system.cpu.dcache.demand_mshr_miss_rate::.cpu.data     0.000013                       # mshr miss rate for demand accesses
system.cpu.dcache.demand_mshr_miss_rate::total     0.000013                       # mshr miss rate for demand accesses
system.cpu.dcache.overall_mshr_miss_rate::.cpu.data     0.000013                       # mshr miss rate for overall accesses
system.cpu.dcache.overall_mshr_miss_rate::total     0.000013                       # mshr miss rate for overall accesses
system.cpu.dcache.demand_avg_mshr_miss_latency::.cpu.data 67945.796875                       # average overall mshr miss latency
system.cpu.dcache.demand_avg_mshr_miss_latency::total 67945.796875                       # average overall mshr miss latency
system.cpu.dcache.overall_avg_mshr_miss_latency::.cpu.data 67945.796875                       # average overall mshr miss latency
system.cpu.dcache.overall_avg_mshr_miss_latency::total 67945.796875                       # average overall mshr miss latency
system.cpu.dcache.replacements                      3                       # number of replacements
system.cpu.dcache.ReadReq_hits::.cpu.data     12062614                       # number of ReadReq hits
system.cpu.dcache.ReadReq_hits::total        12062614                       # number of ReadReq hits
system.cpu.dcache.ReadReq_misses::.cpu.data          307                       # number of ReadReq misses
system.cpu.dcache.ReadReq_misses::total           307                       # number of ReadReq misses
system.cpu.dcache.ReadReq_miss_latency::.cpu.data     24398875                       # number of ReadReq miss cycles
system.cpu.dcache.ReadReq_miss_latency::total     24398875                       # number of ReadReq miss cycles
system.cpu.dcache.ReadReq_accesses::.cpu.data     12062921                       # number of ReadReq accesses(hits+misses)
system.cpu.dcache.ReadReq_accesses::total     12062921                       # number of ReadReq accesses(hits+misses)
system.cpu.dcache.ReadReq_miss_rate::.cpu.data     0.000025                       # miss rate for ReadReq accesses
system.cpu.dcache.ReadReq_miss_rate::total     0.000025                       # miss rate for ReadReq accesses
system.cpu.dcache.ReadReq_avg_miss_latency::.cpu.data 79475.162866                       # average ReadReq miss latency
system.cpu.dcache.ReadReq_avg_miss_latency::total 79475.162866                       # average ReadReq miss latency
system.cpu.dcache.ReadReq_mshr_hits::.cpu.data          171                       # number of ReadReq MSHR hits
system.cpu.dcache.ReadReq_mshr_hits::total          171                       # number of ReadReq MSHR hits
system.cpu.dcache.ReadReq_mshr_misses::.cpu.data          136                       # number of ReadReq MSHR misses
system.cpu.dcache.ReadReq_mshr_misses::total          136                       # number of ReadReq MSHR misses
system.cpu.dcache.ReadReq_mshr_miss_latency::.cpu.data      9796000                       # number of ReadReq MSHR miss cycles
system.cpu.dcache.ReadReq_mshr_miss_latency::total      9796000                       # number of ReadReq MSHR miss cycles
system.cpu.dcache.ReadReq_mshr_miss_rate::.cpu.data     0.000011                       # mshr miss rate for ReadReq accesses
system.cpu.dcache.ReadReq_mshr_miss_rate::total     0.000011                       # mshr miss rate for ReadReq accesses
system.cpu.dcache.ReadReq_avg_mshr_miss_latency::.cpu.data 72029.411765                       # average ReadReq mshr miss latency
system.cpu.dcache.ReadReq_avg_mshr_miss_latency::total 72029.411765                       # average ReadReq mshr miss latency
system.cpu.dcache.WriteReq_hits::.cpu.data      8395890                       # number of WriteReq hits
system.cpu.dcache.WriteReq_hits::total        8395890                       # number of WriteReq hits
system.cpu.dcache.WriteReq_misses::.cpu.data          577                       # number of WriteReq misses
system.cpu.dcache.WriteReq_misses::total          577                       # number of WriteReq misses
system.cpu.dcache.WriteReq_miss_latency::.cpu.data     32308624                       # number of WriteReq miss cycles
system.cpu.dcache.WriteReq_miss_latency::total     32308624                       # number of WriteReq miss cycles
system.cpu.dcache.WriteReq_accesses::.cpu.data      8396467                       # number of WriteReq accesses(hits+misses)
system.cpu.dcache.WriteReq_accesses::total      8396467                       # number of WriteReq accesses(hits+misses)
system.cpu.dcache.WriteReq_miss_rate::.cpu.data     0.000069                       # miss rate for WriteReq accesses
system.cpu.dcache.WriteReq_miss_rate::total     0.000069                       # miss rate for WriteReq accesses
system.cpu.dcache.WriteReq_avg_miss_latency::.cpu.data 55994.149047                       # average WriteReq miss latency
system.cpu.dcache.WriteReq_avg_miss_latency::total 55994.149047                       # average WriteReq miss latency
system.cpu.dcache.WriteReq_mshr_hits::.cpu.data          457                       # number of WriteReq MSHR hits
system.cpu.dcache.WriteReq_mshr_hits::total          457                       # number of WriteReq MSHR hits
system.cpu.dcache.WriteReq_mshr_misses::.cpu.data          120                       # number of WriteReq MSHR misses
system.cpu.dcache.WriteReq_mshr_misses::total          120                       # number of WriteReq MSHR misses
system.cpu.dcache.WriteReq_mshr_miss_latency::.cpu.data      7598124                       # number of WriteReq MSHR miss cycles
system.cpu.dcache.WriteReq_mshr_miss_latency::total      7598124                       # number of WriteReq MSHR miss cycles
system.cpu.dcache.WriteReq_mshr_miss_rate::.cpu.data     0.000014                       # mshr miss rate for WriteReq accesses
system.cpu.dcache.WriteReq_mshr_miss_rate::total     0.000014                       # mshr miss rate for WriteReq accesses
system.cpu.dcache.WriteReq_avg_mshr_miss_latency::.cpu.data 63317.700000                       # average WriteReq mshr miss latency
system.cpu.dcache.WriteReq_avg_mshr_miss_latency::total 63317.700000                       # average WriteReq mshr miss latency
system.cpu.dcache.LoadLockedReq_hits::.cpu.data           17                       # number of LoadLockedReq hits
system.cpu.dcache.LoadLockedReq_hits::total           17                       # number of LoadLockedReq hits
system.cpu.dcache.LoadLockedReq_misses::.cpu.data            2                       # number of LoadLockedReq misses
system.cpu.dcache.LoadLockedReq_misses::total            2                       # number of LoadLockedReq misses
system.cpu.dcache.LoadLockedReq_miss_latency::.cpu.data       113125                       # number of LoadLockedReq miss cycles
system.cpu.dcache.LoadLockedReq_miss_latency::total       113125                       # number of LoadLockedReq miss cycles
system.cpu.dcache.LoadLockedReq_accesses::.cpu.data           19                       # number of LoadLockedReq accesses(hits+misses)
system.cpu.dcache.LoadLockedReq_accesses::total           19                       # number of LoadLockedReq accesses(hits+misses)
system.cpu.dcache.LoadLockedReq_miss_rate::.cpu.data     0.105263                       # miss rate for LoadLockedReq accesses
system.cpu.dcache.LoadLockedReq_miss_rate::total     0.105263                       # miss rate for LoadLockedReq accesses
system.cpu.dcache.LoadLockedReq_avg_miss_latency::.cpu.data 56562.500000                       # average LoadLockedReq miss latency
system.cpu.dcache.LoadLockedReq_avg_miss_latency::total 56562.500000                       # average LoadLockedReq miss latency
system.cpu.dcache.LoadLockedReq_mshr_hits::.cpu.data            2                       # number of LoadLockedReq MSHR hits
system.cpu.dcache.LoadLockedReq_mshr_hits::total            2                       # number of LoadLockedReq MSHR hits
system.cpu.dcache.StoreCondReq_hits::.cpu.data           19                       # number of StoreCondReq hits
system.cpu.dcache.StoreCondReq_hits::total           19                       # number of StoreCondReq hits
system.cpu.dcache.StoreCondReq_accesses::.cpu.data           19                       # number of StoreCondReq accesses(hits+misses)
system.cpu.dcache.StoreCondReq_accesses::total           19                       # number of StoreCondReq accesses(hits+misses)
system.cpu.dcache.tags.pwrStateResidencyTicks::UNDEFINED  52447791875                       # Cumulative time (in ticks) in various power states
system.cpu.dcache.tags.tagsinuse           252.911930                       # Cycle average of tags in use
system.cpu.dcache.tags.total_refs            20458796                       # Total number of references to valid blocks.
system.cpu.dcache.tags.sampled_refs               256                       # Sample count of references to valid blocks.
system.cpu.dcache.tags.avg_refs          79917.171875                       # Average number of references to valid blocks.
system.cpu.dcache.tags.warmup_cycle            149000                       # Cycle when the warmup percentage was hit.
system.cpu.dcache.tags.occ_blocks::.cpu.data   252.911930                       # Average occupied blocks per requestor
system.cpu.dcache.tags.occ_percent::.cpu.data     0.493969                       # Average percentage of cache occupancy
system.cpu.dcache.tags.occ_percent::total     0.493969                       # Average percentage of cache occupancy
system.cpu.dcache.tags.occ_task_id_blocks::1024          253                       # Occupied blocks per task id
system.cpu.dcache.tags.age_task_id_blocks_1024::4          253                       # Occupied blocks per task id
system.cpu.dcache.tags.occ_task_id_percent::1024     0.494141                       # Percentage of cache occupancy per task id
system.cpu.dcache.tags.tag_accesses          81837960                       # Number of tag accesses
system.cpu.dcache.tags.data_accesses         81837960                       # Number of data accesses

---------- End Simulation Statistics   ----------
