
---------- Begin Simulation Statistics ----------
final_tick                                11146210000                       # Number of ticks from beginning of simulation (restored from checkpoints and never reset)
host_inst_rate                                 257652                       # Simulator instruction rate (inst/s)
host_mem_usage                                 693708                       # Number of bytes of host memory used
host_op_rate                                   259371                       # Simulator op (including micro ops) rate (op/s)
host_seconds                                   129.77                       # Real time elapsed on the host
host_tick_rate                               85891335                       # Simulator tick rate (ticks/s)
sim_freq                                 1000000000000                       # Frequency of simulated ticks
sim_insts                                    33435685                       # Number of instructions simulated
sim_ops                                      33658806                       # Number of ops (including micro ops) simulated
sim_seconds                                  0.011146                       # Number of seconds simulated
sim_ticks                                 11146210000                       # Number of ticks simulated
system.cpu.branchPred.BTBCorrect                    0                       # Number of correct BTB predictions (this stat may not work properly.
system.cpu.branchPred.BTBHitPct             95.104635                       # BTB Hit Percentage
system.cpu.branchPred.BTBHits                 2020167                       # Number of BTB hits
system.cpu.branchPred.BTBLookups              2124152                       # Number of BTB lookups
system.cpu.branchPred.RASInCorrect                173                       # Number of incorrect RAS predictions.
system.cpu.branchPred.condIncorrect             44854                       # Number of conditional branches incorrect
system.cpu.branchPred.condPredicted           1016025                       # Number of conditional branches predicted
system.cpu.branchPred.indirectHits             100100                       # Number of indirect target hits.
system.cpu.branchPred.indirectLookups          100716                       # Number of indirect predictor lookups.
system.cpu.branchPred.indirectMisses              616                       # Number of indirect misses.
system.cpu.branchPred.lookups                 3259290                       # Number of BP lookups
system.cpu.branchPred.usedRAS                 1120823                       # Number of times the RAS was used to get a target.
system.cpu.branchPredindirectMispredicted        27203                       # Number of mispredicted indirect branches.
system.cpu.cc_regfile_reads                 127793748                       # number of cc regfile reads
system.cpu.cc_regfile_writes                  3327370                       # number of cc regfile writes
system.cpu.commit.amos                              0                       # Number of atomic instructions committed
system.cpu.commit.branchMispredicts             44419                       # The number of times a branch was mispredicted
system.cpu.commit.branches                    3208606                       # Number of branches committed
system.cpu.commit.bw_lim_events               1339868                       # number cycles where commit BW limit reached
system.cpu.commit.commitNonSpecStalls             117                       # The number of times commit has been forced to stall to communicate backwards
system.cpu.commit.commitSquashedInsts          667572                       # The number of squashed insts skipped by commit
system.cpu.commit.committedInsts             33435685                       # Number of instructions committed
system.cpu.commit.committedOps               33658806                       # Number of ops (including micro ops) committed
system.cpu.commit.committed_per_cycle::samples     17688201                       # Number of insts commited each cycle
system.cpu.commit.committed_per_cycle::mean     1.902896                       # Number of insts commited each cycle
system.cpu.commit.committed_per_cycle::stdev     2.435884                       # Number of insts commited each cycle
system.cpu.commit.committed_per_cycle::underflows            0      0.00%      0.00% # Number of insts commited each cycle
system.cpu.commit.committed_per_cycle::0      7086628     40.06%     40.06% # Number of insts commited each cycle
system.cpu.commit.committed_per_cycle::1      4226749     23.90%     63.96% # Number of insts commited each cycle
system.cpu.commit.committed_per_cycle::2      1190604      6.73%     70.69% # Number of insts commited each cycle
system.cpu.commit.committed_per_cycle::3      1247419      7.05%     77.74% # Number of insts commited each cycle
system.cpu.commit.committed_per_cycle::4      1092745      6.18%     83.92% # Number of insts commited each cycle
system.cpu.commit.committed_per_cycle::5       942232      5.33%     89.25% # Number of insts commited each cycle
system.cpu.commit.committed_per_cycle::6       426184      2.41%     91.66% # Number of insts commited each cycle
system.cpu.commit.committed_per_cycle::7       135772      0.77%     92.43% # Number of insts commited each cycle
system.cpu.commit.committed_per_cycle::8      1339868      7.57%    100.00% # Number of insts commited each cycle
system.cpu.commit.committed_per_cycle::overflows            0      0.00%    100.00% # Number of insts commited each cycle
system.cpu.commit.committed_per_cycle::min_value            0                       # Number of insts commited each cycle
system.cpu.commit.committed_per_cycle::max_value            8                       # Number of insts commited each cycle
system.cpu.commit.committed_per_cycle::total     17688201                       # Number of insts commited each cycle
system.cpu.commit.fp_insts                          0                       # Number of committed floating point instructions.
system.cpu.commit.function_calls              1100703                       # Number of function calls committed.
system.cpu.commit.int_insts                  32651796                       # Number of committed integer instructions.
system.cpu.commit.loads                       8426843                       # Number of loads committed
system.cpu.commit.membars                          52                       # Number of memory barriers committed
system.cpu.commit.op_class_0::No_OpClass            0      0.00%      0.00% # Class of committed instruction
system.cpu.commit.op_class_0::IntAlu         21388891     63.55%     63.55% # Class of committed instruction
system.cpu.commit.op_class_0::IntMult             155      0.00%     63.55% # Class of committed instruction
system.cpu.commit.op_class_0::IntDiv                0      0.00%     63.55% # Class of committed instruction
system.cpu.commit.op_class_0::FloatAdd              0      0.00%     63.55% # Class of committed instruction
system.cpu.commit.op_class_0::FloatCmp              0      0.00%     63.55% # Class of committed instruction
system.cpu.commit.op_class_0::FloatCvt              0      0.00%     63.55% # Class of committed instruction
system.cpu.commit.op_class_0::FloatMult             0      0.00%     63.55% # Class of committed instruction
system.cpu.commit.op_class_0::FloatMultAcc            0      0.00%     63.55% # Class of committed instruction
system.cpu.commit.op_class_0::FloatDiv              0      0.00%     63.55% # Class of committed instruction
system.cpu.commit.op_class_0::FloatMisc             0      0.00%     63.55% # Class of committed instruction
system.cpu.commit.op_class_0::FloatSqrt             0      0.00%     63.55% # Class of committed instruction
system.cpu.commit.op_class_0::SimdAdd               0      0.00%     63.55% # Class of committed instruction
system.cpu.commit.op_class_0::SimdAddAcc            0      0.00%     63.55% # Class of committed instruction
system.cpu.commit.op_class_0::SimdAlu               0      0.00%     63.55% # Class of committed instruction
system.cpu.commit.op_class_0::SimdCmp               0      0.00%     63.55% # Class of committed instruction
system.cpu.commit.op_class_0::SimdCvt               0      0.00%     63.55% # Class of committed instruction
system.cpu.commit.op_class_0::SimdMisc              0      0.00%     63.55% # Class of committed instruction
system.cpu.commit.op_class_0::SimdMult              0      0.00%     63.55% # Class of committed instruction
system.cpu.commit.op_class_0::SimdMultAcc            0      0.00%     63.55% # Class of committed instruction
system.cpu.commit.op_class_0::SimdShift             0      0.00%     63.55% # Class of committed instruction
system.cpu.commit.op_class_0::SimdShiftAcc            0      0.00%     63.55% # Class of committed instruction
system.cpu.commit.op_class_0::SimdDiv               0      0.00%     63.55% # Class of committed instruction
system.cpu.commit.op_class_0::SimdSqrt              0      0.00%     63.55% # Class of committed instruction
system.cpu.commit.op_class_0::SimdFloatAdd            0      0.00%     63.55% # Class of committed instruction
system.cpu.commit.op_class_0::SimdFloatAlu            0      0.00%     63.55% # Class of committed instruction
system.cpu.commit.op_class_0::SimdFloatCmp            0      0.00%     63.55% # Class of committed instruction
system.cpu.commit.op_class_0::SimdFloatCvt            0      0.00%     63.55% # Class of committed instruction
system.cpu.commit.op_class_0::SimdFloatDiv            0      0.00%     63.55% # Class of committed instruction
system.cpu.commit.op_class_0::SimdFloatMisc            4      0.00%     63.55% # Class of committed instruction
system.cpu.commit.op_class_0::SimdFloatMult            0      0.00%     63.55% # Class of committed instruction
system.cpu.commit.op_class_0::SimdFloatMultAcc            0      0.00%     63.55% # Class of committed instruction
system.cpu.commit.op_class_0::SimdFloatSqrt            0      0.00%     63.55% # Class of committed instruction
system.cpu.commit.op_class_0::SimdReduceAdd            0      0.00%     63.55% # Class of committed instruction
system.cpu.commit.op_class_0::SimdReduceAlu            0      0.00%     63.55% # Class of committed instruction
system.cpu.commit.op_class_0::SimdReduceCmp            0      0.00%     63.55% # Class of committed instruction
system.cpu.commit.op_class_0::SimdFloatReduceAdd            0      0.00%     63.55% # Class of committed instruction
system.cpu.commit.op_class_0::SimdFloatReduceCmp            0      0.00%     63.55% # Class of committed instruction
system.cpu.commit.op_class_0::SimdAes               0      0.00%     63.55% # Class of committed instruction
system.cpu.commit.op_class_0::SimdAesMix            0      0.00%     63.55% # Class of committed instruction
system.cpu.commit.op_class_0::SimdSha1Hash            0      0.00%     63.55% # Class of committed instruction
system.cpu.commit.op_class_0::SimdSha1Hash2            0      0.00%     63.55% # Class of committed instruction
system.cpu.commit.op_class_0::SimdSha256Hash            0      0.00%     63.55% # Class of committed instruction
system.cpu.commit.op_class_0::SimdSha256Hash2            0      0.00%     63.55% # Class of committed instruction
system.cpu.commit.op_class_0::SimdShaSigma2            0      0.00%     63.55% # Class of committed instruction
system.cpu.commit.op_class_0::SimdShaSigma3            0      0.00%     63.55% # Class of committed instruction
system.cpu.commit.op_class_0::SimdPredAlu            0      0.00%     63.55% # Class of committed instruction
system.cpu.commit.op_class_0::MemRead         8426843     25.04%     88.58% # Class of committed instruction
system.cpu.commit.op_class_0::MemWrite        3842913     11.42%    100.00% # Class of committed instruction
system.cpu.commit.op_class_0::FloatMemRead            0      0.00%    100.00% # Class of committed instruction
system.cpu.commit.op_class_0::FloatMemWrite            0      0.00%    100.00% # Class of committed instruction
system.cpu.commit.op_class_0::IprAccess             0      0.00%    100.00% # Class of committed instruction
system.cpu.commit.op_class_0::InstPrefetch            0      0.00%    100.00% # Class of committed instruction
system.cpu.commit.op_class_0::total          33658806                       # Class of committed instruction
system.cpu.commit.refs                       12269756                       # Number of memory references committed
system.cpu.commit.swp_count                         0                       # Number of s/w prefetches committed
system.cpu.commit.vec_insts                         0                       # Number of committed Vector instructions.
system.cpu.committedInsts                    33435685                       # Number of Instructions Simulated
system.cpu.committedOps                      33658806                       # Number of Ops (including micro ops) Simulated
system.cpu.cpi                               0.533380                       # CPI: Cycles Per Instruction
system.cpu.cpi_total                         0.533380                       # CPI: Total CPI of All Threads
system.cpu.decode.BlockedCycles                990872                       # Number of cycles decode is blocked
system.cpu.decode.BranchMispred                   448                       # Number of times decode detected a branch misprediction
system.cpu.decode.BranchResolved              2008615                       # Number of times decode resolved a branch
system.cpu.decode.DecodedInsts               34674789                       # Number of instructions handled by decode
system.cpu.decode.IdleCycles                   256751                       # Number of cycles decode is idle
system.cpu.decode.RunCycles                  16302703                       # Number of cycles decode is running
system.cpu.decode.SquashCycles                  44528                       # Number of cycles decode is squashing
system.cpu.decode.SquashedInsts                186721                       # Number of squashed instructions handled by decode
system.cpu.decode.UnblockCycles                197867                       # Number of cycles decode is unblocking
system.cpu.dtb.accesses                             0                       # DTB accesses
system.cpu.dtb.align_faults                         0                       # Number of TLB faults due to alignment restrictions
system.cpu.dtb.domain_faults                        0                       # Number of TLB faults due to domain restrictions
system.cpu.dtb.flush_entries                        0                       # Number of entries that have been flushed from TLB
system.cpu.dtb.flush_tlb                            0                       # Number of times complete TLB was flushed
system.cpu.dtb.flush_tlb_asid                       0                       # Number of times TLB was flushed by ASID
system.cpu.dtb.flush_tlb_mva                        0                       # Number of times TLB was flushed by MVA
system.cpu.dtb.flush_tlb_mva_asid                   0                       # Number of times TLB was flushed by MVA & ASID
system.cpu.dtb.hits                                 0                       # DTB hits
system.cpu.dtb.inst_accesses                        0                       # ITB inst accesses
system.cpu.dtb.inst_hits                            0                       # ITB inst hits
system.cpu.dtb.inst_misses                          0                       # ITB inst misses
system.cpu.dtb.misses                               0                       # DTB misses
system.cpu.dtb.perms_faults                         0                       # Number of TLB faults due to permissions restrictions
system.cpu.dtb.prefetch_faults                      0                       # Number of TLB faults due to prefetch
system.cpu.dtb.read_accesses                        0                       # DTB read accesses
system.cpu.dtb.read_hits                            0                       # DTB read hits
system.cpu.dtb.read_misses                          0                       # DTB read misses
system.cpu.dtb.stage2_mmu.stage2_tlb.accesses            0                       # DTB accesses
system.cpu.dtb.stage2_mmu.stage2_tlb.align_faults            0                       # Number of TLB faults due to alignment restrictions
system.cpu.dtb.stage2_mmu.stage2_tlb.domain_faults            0                       # Number of TLB faults due to domain restrictions
system.cpu.dtb.stage2_mmu.stage2_tlb.flush_entries            0                       # Number of entries that have been flushed from TLB
system.cpu.dtb.stage2_mmu.stage2_tlb.flush_tlb            0                       # Number of times complete TLB was flushed
system.cpu.dtb.stage2_mmu.stage2_tlb.flush_tlb_asid            0                       # Number of times TLB was flushed by ASID
system.cpu.dtb.stage2_mmu.stage2_tlb.flush_tlb_mva            0                       # Number of times TLB was flushed by MVA
system.cpu.dtb.stage2_mmu.stage2_tlb.flush_tlb_mva_asid            0                       # Number of times TLB was flushed by MVA & ASID
system.cpu.dtb.stage2_mmu.stage2_tlb.hits            0                       # DTB hits
system.cpu.dtb.stage2_mmu.stage2_tlb.inst_accesses            0                       # ITB inst accesses
system.cpu.dtb.stage2_mmu.stage2_tlb.inst_hits            0                       # ITB inst hits
system.cpu.dtb.stage2_mmu.stage2_tlb.inst_misses            0                       # ITB inst misses
system.cpu.dtb.stage2_mmu.stage2_tlb.misses            0                       # DTB misses
system.cpu.dtb.stage2_mmu.stage2_tlb.perms_faults            0                       # Number of TLB faults due to permissions restrictions
system.cpu.dtb.stage2_mmu.stage2_tlb.prefetch_faults            0                       # Number of TLB faults due to prefetch
system.cpu.dtb.stage2_mmu.stage2_tlb.read_accesses            0                       # DTB read accesses
system.cpu.dtb.stage2_mmu.stage2_tlb.read_hits            0                       # DTB read hits
system.cpu.dtb.stage2_mmu.stage2_tlb.read_misses            0                       # DTB read misses
system.cpu.dtb.stage2_mmu.stage2_tlb.walker.walkRequestOrigin_Requested::Data            0                       # Table walker requests started/completed, data/inst
system.cpu.dtb.stage2_mmu.stage2_tlb.walker.walkRequestOrigin_Requested::Inst            0                       # Table walker requests started/completed, data/inst
system.cpu.dtb.stage2_mmu.stage2_tlb.walker.walkRequestOrigin_Requested::total            0                       # Table walker requests started/completed, data/inst
system.cpu.dtb.stage2_mmu.stage2_tlb.walker.walkRequestOrigin_Completed::Data            0                       # Table walker requests started/completed, data/inst
system.cpu.dtb.stage2_mmu.stage2_tlb.walker.walkRequestOrigin_Completed::Inst            0                       # Table walker requests started/completed, data/inst
system.cpu.dtb.stage2_mmu.stage2_tlb.walker.walkRequestOrigin_Completed::total            0                       # Table walker requests started/completed, data/inst
system.cpu.dtb.stage2_mmu.stage2_tlb.walker.walkRequestOrigin::total            0                       # Table walker requests started/completed, data/inst
system.cpu.dtb.stage2_mmu.stage2_tlb.walker.walks            0                       # Table walker walks requested
system.cpu.dtb.stage2_mmu.stage2_tlb.write_accesses            0                       # DTB write accesses
system.cpu.dtb.stage2_mmu.stage2_tlb.write_hits            0                       # DTB write hits
system.cpu.dtb.stage2_mmu.stage2_tlb.write_misses            0                       # DTB write misses
system.cpu.dtb.walker.walkRequestOrigin_Requested::Data            0                       # Table walker requests started/completed, data/inst
system.cpu.dtb.walker.walkRequestOrigin_Requested::Inst            0                       # Table walker requests started/completed, data/inst
system.cpu.dtb.walker.walkRequestOrigin_Requested::total            0                       # Table walker requests started/completed, data/inst
system.cpu.dtb.walker.walkRequestOrigin_Completed::Data            0                       # Table walker requests started/completed, data/inst
system.cpu.dtb.walker.walkRequestOrigin_Completed::Inst            0                       # Table walker requests started/completed, data/inst
system.cpu.dtb.walker.walkRequestOrigin_Completed::total            0                       # Table walker requests started/completed, data/inst
system.cpu.dtb.walker.walkRequestOrigin::total            0                       # Table walker requests started/completed, data/inst
system.cpu.dtb.walker.walks                         0                       # Table walker walks requested
system.cpu.dtb.write_accesses                       0                       # DTB write accesses
system.cpu.dtb.write_hits                           0                       # DTB write hits
system.cpu.dtb.write_misses                         0                       # DTB write misses
system.cpu.fetch.Branches                     3259290                       # Number of branches that fetch encountered
system.cpu.fetch.CacheLines                  11098429                       # Number of cache lines fetched
system.cpu.fetch.Cycles                      17685831                       # Number of cycles fetch has run and was not squashing or blocked
system.cpu.fetch.IcacheSquashes                   465                       # Number of outstanding Icache misses that were squashed
system.cpu.fetch.IcacheWaitRetryStallCycles          667                       # Number of stall cycles due to full MSHR
system.cpu.fetch.Insts                       34771794                       # Number of instructions fetch has processed
system.cpu.fetch.MiscStallCycles                  217                       # Number of cycles fetch has spent waiting on interrupts, or bad addresses, or out of MSHRs
system.cpu.fetch.PendingTrapStallCycles            95                       # Number of stall cycles due to pending traps
system.cpu.fetch.SquashCycles                   89938                       # Number of cycles fetch has spent squashing
system.cpu.fetch.branchRate                  0.182758                       # Number of branch fetches per cycle
system.cpu.fetch.icacheStallCycles              60942                       # Number of cycles fetch is stalled on an Icache miss
system.cpu.fetch.predictedBranches            3241090                       # Number of branches that fetch has predicted taken
system.cpu.fetch.rate                        1.949754                       # Number of inst fetches per cycle
system.cpu.fetch.rateDist::samples           17792721                       # Number of instructions fetched each cycle (Total)
system.cpu.fetch.rateDist::mean              1.968632                       # Number of instructions fetched each cycle (Total)
system.cpu.fetch.rateDist::stdev             0.998196                       # Number of instructions fetched each cycle (Total)
system.cpu.fetch.rateDist::underflows               0      0.00%      0.00% # Number of instructions fetched each cycle (Total)
system.cpu.fetch.rateDist::0                   641844      3.61%      3.61% # Number of instructions fetched each cycle (Total)
system.cpu.fetch.rateDist::1                  7226563     40.62%     44.22% # Number of instructions fetched each cycle (Total)
system.cpu.fetch.rateDist::2                  1972179     11.08%     55.31% # Number of instructions fetched each cycle (Total)
system.cpu.fetch.rateDist::3                  7952135     44.69%    100.00% # Number of instructions fetched each cycle (Total)
system.cpu.fetch.rateDist::overflows                0      0.00%    100.00% # Number of instructions fetched each cycle (Total)
system.cpu.fetch.rateDist::min_value                0                       # Number of instructions fetched each cycle (Total)
system.cpu.fetch.rateDist::max_value                3                       # Number of instructions fetched each cycle (Total)
system.cpu.fetch.rateDist::total             17792721                       # Number of instructions fetched each cycle (Total)
system.cpu.idleCycles                           41216                       # Total number of cycles that the CPU has spent unscheduled due to idling
system.cpu.iew.branchMispredicts                44511                       # Number of branch mispredicts detected at execute
system.cpu.iew.branch_mispredict_rate        1.384483                       # Percentage of branch mispredicts
system.cpu.iew.branch_percentage             9.420379                       # Percentage of branches executed
system.cpu.iew.exec_branches                  3214991                       # Number of branches executed
system.cpu.iew.exec_nop                             1                       # number of nop insts executed
system.cpu.iew.exec_rate                     1.913657                       # Inst execution rate
system.cpu.iew.exec_refs                     12356092                       # number of memory reference insts executed
system.cpu.iew.exec_stores                    3870912                       # Number of stores executed
system.cpu.iew.exec_swp                             0                       # number of swp insts executed
system.cpu.iew.iewBlockCycles                   60861                       # Number of cycles IEW is blocking
system.cpu.iew.iewDispLoadInsts               8625793                       # Number of dispatched load instructions
system.cpu.iew.iewDispNonSpecInsts                 68                       # Number of dispatched non-speculative instructions
system.cpu.iew.iewDispSquashedInsts                 0                       # Number of squashed instructions skipped by dispatch
system.cpu.iew.iewDispStoreInsts              3964642                       # Number of dispatched store instructions
system.cpu.iew.iewDispatchedInsts            34427186                       # Number of instructions dispatched to IQ
system.cpu.iew.iewExecLoadInsts               8485180                       # Number of load instructions executed
system.cpu.iew.iewExecSquashedInsts            108430                       # Number of squashed instructions skipped in execute
system.cpu.iew.iewExecutedInsts              34128044                       # Number of executed instructions
system.cpu.iew.iewIQFullEvents                      8                       # Number of times the IQ has become full, causing a stall
system.cpu.iew.iewIdleCycles                        0                       # Number of cycles IEW is idle
system.cpu.iew.iewLSQFullEvents                   101                       # Number of times the LSQ has become full, causing a stall
system.cpu.iew.iewSquashCycles                  44528                       # Number of cycles IEW is squashing
system.cpu.iew.iewUnblockCycles                   115                       # Number of cycles IEW is unblocking
system.cpu.iew.lsq.thread0.blockedLoads             0                       # Number of blocked loads due to partial load-store forwarding
system.cpu.iew.lsq.thread0.cacheBlocked            31                       # Number of times an access to memory failed due to the cache being blocked
system.cpu.iew.lsq.thread0.forwLoads           922085                       # Number of loads that had data forwarded from stores
system.cpu.iew.lsq.thread0.ignoredResponses           34                       # Number of memory responses ignored because the instruction is squashed
system.cpu.iew.lsq.thread0.invAddrLoads             0                       # Number of loads ignored due to an invalid address
system.cpu.iew.lsq.thread0.invAddrSwpfs             0                       # Number of software prefetches ignored due to an invalid address
system.cpu.iew.lsq.thread0.memOrderViolation           99                       # Number of memory ordering violations
system.cpu.iew.lsq.thread0.rescheduledLoads           37                       # Number of loads that were rescheduled
system.cpu.iew.lsq.thread0.squashedLoads       198950                       # Number of loads squashed
system.cpu.iew.lsq.thread0.squashedStores       121729                       # Number of stores squashed
system.cpu.iew.memOrderViolationEvents             99                       # Number of memory order violations
system.cpu.iew.predictedNotTakenIncorrect        13352                       # Number of branches that were predicted not taken incorrectly
system.cpu.iew.predictedTakenIncorrect          31159                       # Number of branches that were predicted taken incorrectly
system.cpu.iew.wb_consumers                  26631604                       # num instructions consuming a value
system.cpu.iew.wb_count                      34112325                       # cumulative count of insts written-back
system.cpu.iew.wb_fanout                     0.931911                       # average fanout of values written-back
system.cpu.iew.wb_producers                  24818290                       # num instructions producing a value
system.cpu.iew.wb_rate                       1.912776                       # insts written-back per cycle
system.cpu.iew.wb_sent                       34112836                       # cumulative count of insts sent to commit
system.cpu.int_regfile_reads                 33292494                       # number of integer regfile reads
system.cpu.int_regfile_writes                27023240                       # number of integer regfile writes
system.cpu.ipc                               1.874835                       # IPC: Instructions Per Cycle
system.cpu.ipc_total                         1.874835                       # IPC: Total IPC of All Threads
system.cpu.iq.FU_type_0::No_OpClass                 7      0.00%      0.00% # Type of FU issued
system.cpu.iq.FU_type_0::IntAlu              21808352     63.70%     63.70% # Type of FU issued
system.cpu.iq.FU_type_0::IntMult                  165      0.00%     63.70% # Type of FU issued
system.cpu.iq.FU_type_0::IntDiv                     0      0.00%     63.70% # Type of FU issued
system.cpu.iq.FU_type_0::FloatAdd                   0      0.00%     63.70% # Type of FU issued
system.cpu.iq.FU_type_0::FloatCmp                   0      0.00%     63.70% # Type of FU issued
system.cpu.iq.FU_type_0::FloatCvt                   0      0.00%     63.70% # Type of FU issued
system.cpu.iq.FU_type_0::FloatMult                  0      0.00%     63.70% # Type of FU issued
system.cpu.iq.FU_type_0::FloatMultAcc               0      0.00%     63.70% # Type of FU issued
system.cpu.iq.FU_type_0::FloatDiv                   0      0.00%     63.70% # Type of FU issued
system.cpu.iq.FU_type_0::FloatMisc                  0      0.00%     63.70% # Type of FU issued
system.cpu.iq.FU_type_0::FloatSqrt                  0      0.00%     63.70% # Type of FU issued
system.cpu.iq.FU_type_0::SimdAdd                    0      0.00%     63.70% # Type of FU issued
system.cpu.iq.FU_type_0::SimdAddAcc                 0      0.00%     63.70% # Type of FU issued
system.cpu.iq.FU_type_0::SimdAlu                    0      0.00%     63.70% # Type of FU issued
system.cpu.iq.FU_type_0::SimdCmp                    0      0.00%     63.70% # Type of FU issued
system.cpu.iq.FU_type_0::SimdCvt                    0      0.00%     63.70% # Type of FU issued
system.cpu.iq.FU_type_0::SimdMisc                   0      0.00%     63.70% # Type of FU issued
system.cpu.iq.FU_type_0::SimdMult                   0      0.00%     63.70% # Type of FU issued
system.cpu.iq.FU_type_0::SimdMultAcc                0      0.00%     63.70% # Type of FU issued
system.cpu.iq.FU_type_0::SimdShift                  0      0.00%     63.70% # Type of FU issued
system.cpu.iq.FU_type_0::SimdShiftAcc               0      0.00%     63.70% # Type of FU issued
system.cpu.iq.FU_type_0::SimdDiv                    0      0.00%     63.70% # Type of FU issued
system.cpu.iq.FU_type_0::SimdSqrt                   0      0.00%     63.70% # Type of FU issued
system.cpu.iq.FU_type_0::SimdFloatAdd               0      0.00%     63.70% # Type of FU issued
system.cpu.iq.FU_type_0::SimdFloatAlu               0      0.00%     63.70% # Type of FU issued
system.cpu.iq.FU_type_0::SimdFloatCmp               0      0.00%     63.70% # Type of FU issued
system.cpu.iq.FU_type_0::SimdFloatCvt               0      0.00%     63.70% # Type of FU issued
system.cpu.iq.FU_type_0::SimdFloatDiv               0      0.00%     63.70% # Type of FU issued
system.cpu.iq.FU_type_0::SimdFloatMisc              4      0.00%     63.70% # Type of FU issued
system.cpu.iq.FU_type_0::SimdFloatMult              0      0.00%     63.70% # Type of FU issued
system.cpu.iq.FU_type_0::SimdFloatMultAcc            0      0.00%     63.70% # Type of FU issued
system.cpu.iq.FU_type_0::SimdFloatSqrt              0      0.00%     63.70% # Type of FU issued
system.cpu.iq.FU_type_0::SimdReduceAdd              0      0.00%     63.70% # Type of FU issued
system.cpu.iq.FU_type_0::SimdReduceAlu              0      0.00%     63.70% # Type of FU issued
system.cpu.iq.FU_type_0::SimdReduceCmp              0      0.00%     63.70% # Type of FU issued
system.cpu.iq.FU_type_0::SimdFloatReduceAdd            0      0.00%     63.70% # Type of FU issued
system.cpu.iq.FU_type_0::SimdFloatReduceCmp            0      0.00%     63.70% # Type of FU issued
system.cpu.iq.FU_type_0::SimdAes                    0      0.00%     63.70% # Type of FU issued
system.cpu.iq.FU_type_0::SimdAesMix                 0      0.00%     63.70% # Type of FU issued
system.cpu.iq.FU_type_0::SimdSha1Hash               0      0.00%     63.70% # Type of FU issued
system.cpu.iq.FU_type_0::SimdSha1Hash2              0      0.00%     63.70% # Type of FU issued
system.cpu.iq.FU_type_0::SimdSha256Hash             0      0.00%     63.70% # Type of FU issued
system.cpu.iq.FU_type_0::SimdSha256Hash2            0      0.00%     63.70% # Type of FU issued
system.cpu.iq.FU_type_0::SimdShaSigma2              0      0.00%     63.70% # Type of FU issued
system.cpu.iq.FU_type_0::SimdShaSigma3              0      0.00%     63.70% # Type of FU issued
system.cpu.iq.FU_type_0::SimdPredAlu                0      0.00%     63.70% # Type of FU issued
system.cpu.iq.FU_type_0::MemRead              8544210     24.96%     88.66% # Type of FU issued
system.cpu.iq.FU_type_0::MemWrite             3883736     11.34%    100.00% # Type of FU issued
system.cpu.iq.FU_type_0::FloatMemRead               0      0.00%    100.00% # Type of FU issued
system.cpu.iq.FU_type_0::FloatMemWrite              0      0.00%    100.00% # Type of FU issued
system.cpu.iq.FU_type_0::IprAccess                  0      0.00%    100.00% # Type of FU issued
system.cpu.iq.FU_type_0::InstPrefetch               0      0.00%    100.00% # Type of FU issued
system.cpu.iq.FU_type_0::total               34236474                       # Type of FU issued
system.cpu.iq.fp_alu_accesses                       0                       # Number of floating point alu accesses
system.cpu.iq.fp_inst_queue_reads                   0                       # Number of floating instruction queue reads
system.cpu.iq.fp_inst_queue_wakeup_accesses            0                       # Number of floating instruction queue wakeup accesses
system.cpu.iq.fp_inst_queue_writes                  0                       # Number of floating instruction queue writes
system.cpu.iq.fu_busy_cnt                     3450184                       # FU busy when requested
system.cpu.iq.fu_busy_rate                   0.100775                       # FU busy rate (busy events/executed inst)
system.cpu.iq.fu_full::No_OpClass                   0      0.00%      0.00% # attempts to use FU when none available
system.cpu.iq.fu_full::IntAlu                 1157395     33.55%     33.55% # attempts to use FU when none available
system.cpu.iq.fu_full::IntMult                     76      0.00%     33.55% # attempts to use FU when none available
system.cpu.iq.fu_full::IntDiv                       0      0.00%     33.55% # attempts to use FU when none available
system.cpu.iq.fu_full::FloatAdd                     0      0.00%     33.55% # attempts to use FU when none available
system.cpu.iq.fu_full::FloatCmp                     0      0.00%     33.55% # attempts to use FU when none available
system.cpu.iq.fu_full::FloatCvt                     0      0.00%     33.55% # attempts to use FU when none available
system.cpu.iq.fu_full::FloatMult                    0      0.00%     33.55% # attempts to use FU when none available
system.cpu.iq.fu_full::FloatMultAcc                 0      0.00%     33.55% # attempts to use FU when none available
system.cpu.iq.fu_full::FloatDiv                     0      0.00%     33.55% # attempts to use FU when none available
system.cpu.iq.fu_full::FloatMisc                    0      0.00%     33.55% # attempts to use FU when none available
system.cpu.iq.fu_full::FloatSqrt                    0      0.00%     33.55% # attempts to use FU when none available
system.cpu.iq.fu_full::SimdAdd                      0      0.00%     33.55% # attempts to use FU when none available
system.cpu.iq.fu_full::SimdAddAcc                   0      0.00%     33.55% # attempts to use FU when none available
system.cpu.iq.fu_full::SimdAlu                      0      0.00%     33.55% # attempts to use FU when none available
system.cpu.iq.fu_full::SimdCmp                      0      0.00%     33.55% # attempts to use FU when none available
system.cpu.iq.fu_full::SimdCvt                      0      0.00%     33.55% # attempts to use FU when none available
system.cpu.iq.fu_full::SimdMisc                     0      0.00%     33.55% # attempts to use FU when none available
system.cpu.iq.fu_full::SimdMult                     0      0.00%     33.55% # attempts to use FU when none available
system.cpu.iq.fu_full::SimdMultAcc                  0      0.00%     33.55% # attempts to use FU when none available
system.cpu.iq.fu_full::SimdShift                    0      0.00%     33.55% # attempts to use FU when none available
system.cpu.iq.fu_full::SimdShiftAcc                 0      0.00%     33.55% # attempts to use FU when none available
system.cpu.iq.fu_full::SimdDiv                      0      0.00%     33.55% # attempts to use FU when none available
system.cpu.iq.fu_full::SimdSqrt                     0      0.00%     33.55% # attempts to use FU when none available
system.cpu.iq.fu_full::SimdFloatAdd                 0      0.00%     33.55% # attempts to use FU when none available
system.cpu.iq.fu_full::SimdFloatAlu                 0      0.00%     33.55% # attempts to use FU when none available
system.cpu.iq.fu_full::SimdFloatCmp                 0      0.00%     33.55% # attempts to use FU when none available
system.cpu.iq.fu_full::SimdFloatCvt                 0      0.00%     33.55% # attempts to use FU when none available
system.cpu.iq.fu_full::SimdFloatDiv                 0      0.00%     33.55% # attempts to use FU when none available
system.cpu.iq.fu_full::SimdFloatMisc                0      0.00%     33.55% # attempts to use FU when none available
system.cpu.iq.fu_full::SimdFloatMult                0      0.00%     33.55% # attempts to use FU when none available
system.cpu.iq.fu_full::SimdFloatMultAcc             0      0.00%     33.55% # attempts to use FU when none available
system.cpu.iq.fu_full::SimdFloatSqrt                0      0.00%     33.55% # attempts to use FU when none available
system.cpu.iq.fu_full::SimdReduceAdd                0      0.00%     33.55% # attempts to use FU when none available
system.cpu.iq.fu_full::SimdReduceAlu                0      0.00%     33.55% # attempts to use FU when none available
system.cpu.iq.fu_full::SimdReduceCmp                0      0.00%     33.55% # attempts to use FU when none available
system.cpu.iq.fu_full::SimdFloatReduceAdd            0      0.00%     33.55% # attempts to use FU when none available
system.cpu.iq.fu_full::SimdFloatReduceCmp            0      0.00%     33.55% # attempts to use FU when none available
system.cpu.iq.fu_full::SimdAes                      0      0.00%     33.55% # attempts to use FU when none available
system.cpu.iq.fu_full::SimdAesMix                   0      0.00%     33.55% # attempts to use FU when none available
system.cpu.iq.fu_full::SimdSha1Hash                 0      0.00%     33.55% # attempts to use FU when none available
system.cpu.iq.fu_full::SimdSha1Hash2                0      0.00%     33.55% # attempts to use FU when none available
system.cpu.iq.fu_full::SimdSha256Hash               0      0.00%     33.55% # attempts to use FU when none available
system.cpu.iq.fu_full::SimdSha256Hash2              0      0.00%     33.55% # attempts to use FU when none available
system.cpu.iq.fu_full::SimdShaSigma2                0      0.00%     33.55% # attempts to use FU when none available
system.cpu.iq.fu_full::SimdShaSigma3                0      0.00%     33.55% # attempts to use FU when none available
system.cpu.iq.fu_full::SimdPredAlu                  0      0.00%     33.55% # attempts to use FU when none available
system.cpu.iq.fu_full::MemRead                1967650     57.03%     90.58% # attempts to use FU when none available
system.cpu.iq.fu_full::MemWrite                325063      9.42%    100.00% # attempts to use FU when none available
system.cpu.iq.fu_full::FloatMemRead                 0      0.00%    100.00% # attempts to use FU when none available
system.cpu.iq.fu_full::FloatMemWrite                0      0.00%    100.00% # attempts to use FU when none available
system.cpu.iq.fu_full::IprAccess                    0      0.00%    100.00% # attempts to use FU when none available
system.cpu.iq.fu_full::InstPrefetch                 0      0.00%    100.00% # attempts to use FU when none available
system.cpu.iq.int_alu_accesses               37686651                       # Number of integer alu accesses
system.cpu.iq.int_inst_queue_reads           89717077                       # Number of integer instruction queue reads
system.cpu.iq.int_inst_queue_wakeup_accesses     34112325                       # Number of integer instruction queue wakeup accesses
system.cpu.iq.int_inst_queue_writes          35195661                       # Number of integer instruction queue writes
system.cpu.iq.iqInstsAdded                   34427065                       # Number of instructions added to the IQ (excludes non-spec)
system.cpu.iq.iqInstsIssued                  34236474                       # Number of instructions issued
system.cpu.iq.iqNonSpecInstsAdded                 120                       # Number of non-speculative instructions added to the IQ
system.cpu.iq.iqSquashedInstsExamined          768378                       # Number of squashed instructions iterated over during squash; mainly for profiling
system.cpu.iq.iqSquashedInstsIssued              1224                       # Number of squashed instructions issued
system.cpu.iq.iqSquashedNonSpecRemoved              3                       # Number of squashed non-spec instructions that were removed
system.cpu.iq.iqSquashedOperandsExamined      1533176                       # Number of squashed operands that are examined and possibly removed from graph
system.cpu.iq.issued_per_cycle::samples      17792721                       # Number of insts issued each cycle
system.cpu.iq.issued_per_cycle::mean         1.924184                       # Number of insts issued each cycle
system.cpu.iq.issued_per_cycle::stdev        0.890940                       # Number of insts issued each cycle
system.cpu.iq.issued_per_cycle::underflows            0      0.00%      0.00% # Number of insts issued each cycle
system.cpu.iq.issued_per_cycle::0             1282248      7.21%      7.21% # Number of insts issued each cycle
system.cpu.iq.issued_per_cycle::1             3810411     21.42%     28.62% # Number of insts issued each cycle
system.cpu.iq.issued_per_cycle::2             7804281     43.86%     72.48% # Number of insts issued each cycle
system.cpu.iq.issued_per_cycle::3             4765623     26.78%     99.27% # Number of insts issued each cycle
system.cpu.iq.issued_per_cycle::4              130158      0.73%    100.00% # Number of insts issued each cycle
system.cpu.iq.issued_per_cycle::5                   0      0.00%    100.00% # Number of insts issued each cycle
system.cpu.iq.issued_per_cycle::6                   0      0.00%    100.00% # Number of insts issued each cycle
system.cpu.iq.issued_per_cycle::7                   0      0.00%    100.00% # Number of insts issued each cycle
system.cpu.iq.issued_per_cycle::8                   0      0.00%    100.00% # Number of insts issued each cycle
system.cpu.iq.issued_per_cycle::overflows            0      0.00%    100.00% # Number of insts issued each cycle
system.cpu.iq.issued_per_cycle::min_value            0                       # Number of insts issued each cycle
system.cpu.iq.issued_per_cycle::max_value            4                       # Number of insts issued each cycle
system.cpu.iq.issued_per_cycle::total        17792721                       # Number of insts issued each cycle
system.cpu.iq.rate                           1.919737                       # Inst issue rate
system.cpu.iq.vec_alu_accesses                      0                       # Number of vector alu accesses
system.cpu.iq.vec_inst_queue_reads                  0                       # Number of vector instruction queue reads
system.cpu.iq.vec_inst_queue_wakeup_accesses            0                       # Number of vector instruction queue wakeup accesses
system.cpu.iq.vec_inst_queue_writes                 0                       # Number of vector instruction queue writes
system.cpu.itb.accesses                             0                       # DTB accesses
system.cpu.itb.align_faults                         0                       # Number of TLB faults due to alignment restrictions
system.cpu.itb.domain_faults                        0                       # Number of TLB faults due to domain restrictions
system.cpu.itb.flush_entries                        0                       # Number of entries that have been flushed from TLB
system.cpu.itb.flush_tlb                            0                       # Number of times complete TLB was flushed
system.cpu.itb.flush_tlb_asid                       0                       # Number of times TLB was flushed by ASID
system.cpu.itb.flush_tlb_mva                        0                       # Number of times TLB was flushed by MVA
system.cpu.itb.flush_tlb_mva_asid                   0                       # Number of times TLB was flushed by MVA & ASID
system.cpu.itb.hits                                 0                       # DTB hits
system.cpu.itb.inst_accesses                        0                       # ITB inst accesses
system.cpu.itb.inst_hits                            0                       # ITB inst hits
system.cpu.itb.inst_misses                          0                       # ITB inst misses
system.cpu.itb.misses                               0                       # DTB misses
system.cpu.itb.perms_faults                         0                       # Number of TLB faults due to permissions restrictions
system.cpu.itb.prefetch_faults                      0                       # Number of TLB faults due to prefetch
system.cpu.itb.read_accesses                        0                       # DTB read accesses
system.cpu.itb.read_hits                            0                       # DTB read hits
system.cpu.itb.read_misses                          0                       # DTB read misses
system.cpu.itb.stage2_mmu.stage2_tlb.accesses            0                       # DTB accesses
system.cpu.itb.stage2_mmu.stage2_tlb.align_faults            0                       # Number of TLB faults due to alignment restrictions
system.cpu.itb.stage2_mmu.stage2_tlb.domain_faults            0                       # Number of TLB faults due to domain restrictions
system.cpu.itb.stage2_mmu.stage2_tlb.flush_entries            0                       # Number of entries that have been flushed from TLB
system.cpu.itb.stage2_mmu.stage2_tlb.flush_tlb            0                       # Number of times complete TLB was flushed
system.cpu.itb.stage2_mmu.stage2_tlb.flush_tlb_asid            0                       # Number of times TLB was flushed by ASID
system.cpu.itb.stage2_mmu.stage2_tlb.flush_tlb_mva            0                       # Number of times TLB was flushed by MVA
system.cpu.itb.stage2_mmu.stage2_tlb.flush_tlb_mva_asid            0                       # Number of times TLB was flushed by MVA & ASID
system.cpu.itb.stage2_mmu.stage2_tlb.hits            0                       # DTB hits
system.cpu.itb.stage2_mmu.stage2_tlb.inst_accesses            0                       # ITB inst accesses
system.cpu.itb.stage2_mmu.stage2_tlb.inst_hits            0                       # ITB inst hits
system.cpu.itb.stage2_mmu.stage2_tlb.inst_misses            0                       # ITB inst misses
system.cpu.itb.stage2_mmu.stage2_tlb.misses            0                       # DTB misses
system.cpu.itb.stage2_mmu.stage2_tlb.perms_faults            0                       # Number of TLB faults due to permissions restrictions
system.cpu.itb.stage2_mmu.stage2_tlb.prefetch_faults            0                       # Number of TLB faults due to prefetch
system.cpu.itb.stage2_mmu.stage2_tlb.read_accesses            0                       # DTB read accesses
system.cpu.itb.stage2_mmu.stage2_tlb.read_hits            0                       # DTB read hits
system.cpu.itb.stage2_mmu.stage2_tlb.read_misses            0                       # DTB read misses
system.cpu.itb.stage2_mmu.stage2_tlb.walker.walkRequestOrigin_Requested::Data            0                       # Table walker requests started/completed, data/inst
system.cpu.itb.stage2_mmu.stage2_tlb.walker.walkRequestOrigin_Requested::Inst            0                       # Table walker requests started/completed, data/inst
system.cpu.itb.stage2_mmu.stage2_tlb.walker.walkRequestOrigin_Requested::total            0                       # Table walker requests started/completed, data/inst
system.cpu.itb.stage2_mmu.stage2_tlb.walker.walkRequestOrigin_Completed::Data            0                       # Table walker requests started/completed, data/inst
system.cpu.itb.stage2_mmu.stage2_tlb.walker.walkRequestOrigin_Completed::Inst            0                       # Table walker requests started/completed, data/inst
system.cpu.itb.stage2_mmu.stage2_tlb.walker.walkRequestOrigin_Completed::total            0                       # Table walker requests started/completed, data/inst
system.cpu.itb.stage2_mmu.stage2_tlb.walker.walkRequestOrigin::total            0                       # Table walker requests started/completed, data/inst
system.cpu.itb.stage2_mmu.stage2_tlb.walker.walks            0                       # Table walker walks requested
system.cpu.itb.stage2_mmu.stage2_tlb.write_accesses            0                       # DTB write accesses
system.cpu.itb.stage2_mmu.stage2_tlb.write_hits            0                       # DTB write hits
system.cpu.itb.stage2_mmu.stage2_tlb.write_misses            0                       # DTB write misses
system.cpu.itb.walker.walkRequestOrigin_Requested::Data            0                       # Table walker requests started/completed, data/inst
system.cpu.itb.walker.walkRequestOrigin_Requested::Inst            0                       # Table walker requests started/completed, data/inst
system.cpu.itb.walker.walkRequestOrigin_Requested::total            0                       # Table walker requests started/completed, data/inst
system.cpu.itb.walker.walkRequestOrigin_Completed::Data            0                       # Table walker requests started/completed, data/inst
system.cpu.itb.walker.walkRequestOrigin_Completed::Inst            0                       # Table walker requests started/completed, data/inst
system.cpu.itb.walker.walkRequestOrigin_Completed::total            0                       # Table walker requests started/completed, data/inst
system.cpu.itb.walker.walkRequestOrigin::total            0                       # Table walker requests started/completed, data/inst
system.cpu.itb.walker.walks                         0                       # Table walker walks requested
system.cpu.itb.write_accesses                       0                       # DTB write accesses
system.cpu.itb.write_hits                           0                       # DTB write hits
system.cpu.itb.write_misses                         0                       # DTB write misses
system.cpu.memDep0.conflictingLoads            509939                       # Number of conflicting loads.
system.cpu.memDep0.conflictingStores            35127                       # Number of conflicting stores.
system.cpu.memDep0.insertedLoads              8625793                       # Number of loads inserted to the mem dependence unit.
system.cpu.memDep0.insertedStores             3964642                       # Number of stores inserted to the mem dependence unit.
system.cpu.misc_regfile_reads                12341893                       # number of misc regfile reads
system.cpu.misc_regfile_writes                    206                       # number of misc regfile writes
system.cpu.numCycles                         17833937                       # number of cpu cycles simulated
system.cpu.numWorkItemsCompleted                    0                       # number of work items this cpu completed
system.cpu.numWorkItemsStarted                      0                       # number of work items this cpu started
system.cpu.rename.BlockCycles                  767384                       # Number of cycles rename is blocking
system.cpu.rename.CommittedMaps              29927441                       # Number of HB maps that are committed
system.cpu.rename.IQFullEvents                    288                       # Number of times rename has blocked due to IQ full
system.cpu.rename.IdleCycles                   491511                       # Number of cycles rename is idle
system.cpu.rename.LQFullEvents                      7                       # Number of times rename has blocked due to LQ full
system.cpu.rename.ROBFullEvents                103817                       # Number of times rename has blocked due to ROB full
system.cpu.rename.RenameLookups             150070210                       # Number of register rename lookups that rename has made
system.cpu.rename.RenamedInsts               34492168                       # Number of instructions processed by rename
system.cpu.rename.RenamedOperands            30610995                       # Number of destination operands rename has renamed
system.cpu.rename.RunCycles                  16265547                       # Number of cycles rename is running
system.cpu.rename.SQFullEvents                  66562                       # Number of times rename has blocked due to SQ full
system.cpu.rename.SquashCycles                  44528                       # Number of cycles rename is squashing
system.cpu.rename.SquashedInsts                 81448                       # Number of squashed instructions processed by rename
system.cpu.rename.UnblockCycles                221025                       # Number of cycles rename is unblocking
system.cpu.rename.UndoneMaps                   683553                       # Number of HB maps that are undone due to squashing
system.cpu.rename.int_rename_lookups         33959656                       # Number of integer rename lookups
system.cpu.rename.serializeStallCycles           2726                       # count of cycles rename stalled for serializing inst
system.cpu.rename.serializingInsts                 72                       # count of serializing insts renamed
system.cpu.rename.skidInsts                    326776                       # count of insts added to the skid buffer
system.cpu.rename.tempSerializingInsts             68                       # count of temporary serializing insts renamed
system.cpu.rename.vec_rename_lookups               35                       # Number of vector rename lookups
system.cpu.rob.rob_reads                     50674554                       # The number of ROB reads
system.cpu.rob.rob_writes                    68757282                       # The number of ROB writes
system.cpu.timesIdled                             617                       # Number of times that the entire CPU went into an idle state and unscheduled itself
system.cpu.vec_regfile_reads                       32                       # number of vector regfile reads
system.cpu.workload.numSyscalls                    13                       # Number of system calls
system.membus.snoop_filter.hit_multi_requests           37                       # Number of requests hitting in the snoop filter with multiple (>1) holders of the requested data.
system.membus.snoop_filter.hit_multi_snoops            0                       # Number of snoops hitting in the snoop filter with multiple (>1) holders of the requested data.
system.membus.snoop_filter.hit_single_requests        34561                       # Number of requests hitting in the snoop filter with a single holder of the requested data.
system.membus.snoop_filter.hit_single_snoops            0                       # Number of snoops hitting in the snoop filter with a single holder of the requested data.
system.membus.snoop_filter.tot_requests         70092                       # Total number of requests made to the snoop filter.
system.membus.snoop_filter.tot_snoops               0                       # Total number of snoops made to the snoop filter.
system.membus.pwrStateResidencyTicks::UNDEFINED  11146210000                       # Cumulative time (in ticks) in various power states
system.membus.trans_dist::ReadResp              26304                       # Transaction distribution
system.membus.trans_dist::WritebackDirty        25058                       # Transaction distribution
system.membus.trans_dist::WritebackClean         9486                       # Transaction distribution
system.membus.trans_dist::ReadExReq              9244                       # Transaction distribution
system.membus.trans_dist::ReadExResp             9244                       # Transaction distribution
system.membus.trans_dist::ReadCleanReq            793                       # Transaction distribution
system.membus.trans_dist::ReadSharedReq         25511                       # Transaction distribution
system.membus.pkt_count_system.cpu.icache.mem_side::system.mem_ctrls.port         1887                       # Packet count per connected master and slave (bytes)
system.membus.pkt_count_system.cpu.dcache.mem_side::system.mem_ctrls.port       103753                       # Packet count per connected master and slave (bytes)
system.membus.pkt_count::total                 105640                       # Packet count per connected master and slave (bytes)
system.membus.pkt_size_system.cpu.icache.mem_side::system.mem_ctrls.port        70016                       # Cumulative packet size per connected master and slave (bytes)
system.membus.pkt_size_system.cpu.dcache.mem_side::system.mem_ctrls.port      4415872                       # Cumulative packet size per connected master and slave (bytes)
system.membus.pkt_size::total                 4485888                       # Cumulative packet size per connected master and slave (bytes)
system.membus.snoops                                0                       # Total snoops (count)
system.membus.snoopTraffic                          0                       # Total snoop traffic (bytes)
system.membus.snoop_fanout::samples             35548                       # Request fanout histogram
system.membus.snoop_fanout::mean             0.001519                       # Request fanout histogram
system.membus.snoop_fanout::stdev            0.038946                       # Request fanout histogram
system.membus.snoop_fanout::underflows              0      0.00%      0.00% # Request fanout histogram
system.membus.snoop_fanout::0                   35494     99.85%     99.85% # Request fanout histogram
system.membus.snoop_fanout::1                      54      0.15%    100.00% # Request fanout histogram
system.membus.snoop_fanout::2                       0      0.00%    100.00% # Request fanout histogram
system.membus.snoop_fanout::3                       0      0.00%    100.00% # Request fanout histogram
system.membus.snoop_fanout::4                       0      0.00%    100.00% # Request fanout histogram
system.membus.snoop_fanout::overflows               0      0.00%    100.00% # Request fanout histogram
system.membus.snoop_fanout::min_value               0                       # Request fanout histogram
system.membus.snoop_fanout::max_value               1                       # Request fanout histogram
system.membus.snoop_fanout::total               35548                       # Request fanout histogram
system.membus.reqLayer0.occupancy           239966875                       # Layer occupancy (ticks)
system.membus.reqLayer0.utilization               2.2                       # Layer utilization (%)
system.membus.respLayer1.occupancy            4215500                       # Layer occupancy (ticks)
system.membus.respLayer1.utilization              0.0                       # Layer utilization (%)
system.membus.respLayer2.occupancy          174148375                       # Layer occupancy (ticks)
system.membus.respLayer2.utilization              1.6                       # Layer utilization (%)
system.voltage_domain.voltage                       1                       # Voltage in Volts
system.clk_domain.clock                          1000                       # Clock period in ticks
system.cpu_voltage_domain.voltage                   1                       # Voltage in Volts
system.mem_ctrls.pwrStateResidencyTicks::UNDEFINED  11146210000                       # Cumulative time (in ticks) in various power states
system.mem_ctrls.bytes_read::.cpu.inst          50752                       # Number of bytes read from this memory
system.mem_ctrls.bytes_read::.cpu.data        2224320                       # Number of bytes read from this memory
system.mem_ctrls.bytes_read::total            2275072                       # Number of bytes read from this memory
system.mem_ctrls.bytes_inst_read::.cpu.inst        50752                       # Number of instructions bytes read from this memory
system.mem_ctrls.bytes_inst_read::total         50752                       # Number of instructions bytes read from this memory
system.mem_ctrls.bytes_written::.writebacks      1603712                       # Number of bytes written to this memory
system.mem_ctrls.bytes_written::total         1603712                       # Number of bytes written to this memory
system.mem_ctrls.num_reads::.cpu.inst             793                       # Number of read requests responded to by this memory
system.mem_ctrls.num_reads::.cpu.data           34755                       # Number of read requests responded to by this memory
system.mem_ctrls.num_reads::total               35548                       # Number of read requests responded to by this memory
system.mem_ctrls.num_writes::.writebacks        25058                       # Number of write requests responded to by this memory
system.mem_ctrls.num_writes::total              25058                       # Number of write requests responded to by this memory
system.mem_ctrls.bw_read::.cpu.inst           4553297                       # Total read bandwidth from this memory (bytes/s)
system.mem_ctrls.bw_read::.cpu.data         199558415                       # Total read bandwidth from this memory (bytes/s)
system.mem_ctrls.bw_read::total             204111712                       # Total read bandwidth from this memory (bytes/s)
system.mem_ctrls.bw_inst_read::.cpu.inst      4553297                       # Instruction read bandwidth from this memory (bytes/s)
system.mem_ctrls.bw_inst_read::total          4553297                       # Instruction read bandwidth from this memory (bytes/s)
system.mem_ctrls.bw_write::.writebacks      143879579                       # Write bandwidth from this memory (bytes/s)
system.mem_ctrls.bw_write::total            143879579                       # Write bandwidth from this memory (bytes/s)
system.mem_ctrls.bw_total::.writebacks      143879579                       # Total bandwidth to/from this memory (bytes/s)
system.mem_ctrls.bw_total::.cpu.inst          4553297                       # Total bandwidth to/from this memory (bytes/s)
system.mem_ctrls.bw_total::.cpu.data        199558415                       # Total bandwidth to/from this memory (bytes/s)
system.mem_ctrls.bw_total::total            347991290                       # Total bandwidth to/from this memory (bytes/s)
system.mem_ctrls.avgPriority_.writebacks::samples      1148.00                       # Average QoS priority value for accepted requests
system.mem_ctrls.avgPriority_.cpu.inst::samples       781.00                       # Average QoS priority value for accepted requests
system.mem_ctrls.avgPriority_.cpu.data::samples      1388.00                       # Average QoS priority value for accepted requests
system.mem_ctrls.priorityMinLatency      0.000000018750                       # per QoS priority minimum request to response latency (s)
system.mem_ctrls.priorityMaxLatency      0.022068493750                       # per QoS priority maximum request to response latency (s)
system.mem_ctrls.numReadWriteTurnArounds           69                       # Number of turnarounds from READ to WRITE
system.mem_ctrls.numWriteReadTurnArounds           70                       # Number of turnarounds from WRITE to READ
system.mem_ctrls.numStayReadState               41510                       # Number of times bus staying in READ state
system.mem_ctrls.numStayWriteState               1051                       # Number of times bus staying in WRITE state
system.mem_ctrls.readReqs                       35548                       # Number of read requests accepted
system.mem_ctrls.writeReqs                      34507                       # Number of write requests accepted
system.mem_ctrls.readBursts                     35548                       # Number of DRAM read bursts, including those serviced by the write queue
system.mem_ctrls.writeBursts                    34507                       # Number of DRAM write bursts, including those merged in the write queue
system.mem_ctrls.servicedByWrQ                  33379                       # Number of DRAM read bursts serviced by the write queue
system.mem_ctrls.mergedWrBursts                 33359                       # Number of DRAM write bursts merged with an existing one
system.mem_ctrls.neitherReadNorWriteReqs            0                       # Number of requests that are neither read nor write
system.mem_ctrls.perBankRdBursts::0               231                       # Per bank write bursts
system.mem_ctrls.perBankRdBursts::1               206                       # Per bank write bursts
system.mem_ctrls.perBankRdBursts::2               220                       # Per bank write bursts
system.mem_ctrls.perBankRdBursts::3               254                       # Per bank write bursts
system.mem_ctrls.perBankRdBursts::4               265                       # Per bank write bursts
system.mem_ctrls.perBankRdBursts::5               223                       # Per bank write bursts
system.mem_ctrls.perBankRdBursts::6               213                       # Per bank write bursts
system.mem_ctrls.perBankRdBursts::7               209                       # Per bank write bursts
system.mem_ctrls.perBankRdBursts::8               108                       # Per bank write bursts
system.mem_ctrls.perBankRdBursts::9                34                       # Per bank write bursts
system.mem_ctrls.perBankRdBursts::10               53                       # Per bank write bursts
system.mem_ctrls.perBankRdBursts::11               31                       # Per bank write bursts
system.mem_ctrls.perBankRdBursts::12               64                       # Per bank write bursts
system.mem_ctrls.perBankRdBursts::13                1                       # Per bank write bursts
system.mem_ctrls.perBankRdBursts::14                8                       # Per bank write bursts
system.mem_ctrls.perBankRdBursts::15               49                       # Per bank write bursts
system.mem_ctrls.perBankWrBursts::0                41                       # Per bank write bursts
system.mem_ctrls.perBankWrBursts::1                42                       # Per bank write bursts
system.mem_ctrls.perBankWrBursts::2                87                       # Per bank write bursts
system.mem_ctrls.perBankWrBursts::3               123                       # Per bank write bursts
system.mem_ctrls.perBankWrBursts::4               196                       # Per bank write bursts
system.mem_ctrls.perBankWrBursts::5               177                       # Per bank write bursts
system.mem_ctrls.perBankWrBursts::6               158                       # Per bank write bursts
system.mem_ctrls.perBankWrBursts::7               142                       # Per bank write bursts
system.mem_ctrls.perBankWrBursts::8                57                       # Per bank write bursts
system.mem_ctrls.perBankWrBursts::9                17                       # Per bank write bursts
system.mem_ctrls.perBankWrBursts::10               13                       # Per bank write bursts
system.mem_ctrls.perBankWrBursts::11                8                       # Per bank write bursts
system.mem_ctrls.perBankWrBursts::12               36                       # Per bank write bursts
system.mem_ctrls.perBankWrBursts::13                1                       # Per bank write bursts
system.mem_ctrls.perBankWrBursts::14                8                       # Per bank write bursts
system.mem_ctrls.perBankWrBursts::15               15                       # Per bank write bursts
system.mem_ctrls.avgRdQLen                       1.01                       # Average read queue length when enqueuing
system.mem_ctrls.avgWrQLen                      23.98                       # Average write queue length when enqueuing
system.mem_ctrls.totQLat                     28864625                       # Total ticks spent queuing
system.mem_ctrls.totBusLat                   10845000                       # Total ticks spent in databus transfers
system.mem_ctrls.totMemAccLat                69533375                       # Total ticks spent from burst creation until serviced by the DRAM
system.mem_ctrls.avgQLat                     13307.80                       # Average queueing delay per DRAM burst
system.mem_ctrls.avgBusLat                    5000.00                       # Average bus latency per DRAM burst
system.mem_ctrls.avgMemAccLat                32057.80                       # Average memory access latency per DRAM burst
system.mem_ctrls.numRdRetry                         0                       # Number of times read queue was full causing retry
system.mem_ctrls.numWrRetry                         0                       # Number of times write queue was full causing retry
system.mem_ctrls.readRowHits                     1678                       # Number of row buffer hits during reads
system.mem_ctrls.writeRowHits                     928                       # Number of row buffer hits during writes
system.mem_ctrls.readRowHitRate                 77.36                       # Row buffer hit rate for reads
system.mem_ctrls.writeRowHitRate                80.84                       # Row buffer hit rate for writes
system.mem_ctrls.readPktSize::0                     0                       # Read request sizes (log2)
system.mem_ctrls.readPktSize::1                     0                       # Read request sizes (log2)
system.mem_ctrls.readPktSize::2                     0                       # Read request sizes (log2)
system.mem_ctrls.readPktSize::3                     0                       # Read request sizes (log2)
system.mem_ctrls.readPktSize::4                     0                       # Read request sizes (log2)
system.mem_ctrls.readPktSize::5                     0                       # Read request sizes (log2)
system.mem_ctrls.readPktSize::6                 35548                       # Read request sizes (log2)
system.mem_ctrls.writePktSize::0                    0                       # Write request sizes (log2)
system.mem_ctrls.writePktSize::1                    0                       # Write request sizes (log2)
system.mem_ctrls.writePktSize::2                    0                       # Write request sizes (log2)
system.mem_ctrls.writePktSize::3                    0                       # Write request sizes (log2)
system.mem_ctrls.writePktSize::4                    0                       # Write request sizes (log2)
system.mem_ctrls.writePktSize::5                    0                       # Write request sizes (log2)
system.mem_ctrls.writePktSize::6                34507                       # Write request sizes (log2)
system.mem_ctrls.rdQLenPdf::0                    1264                       # What read queue length does an incoming req see
system.mem_ctrls.rdQLenPdf::1                     821                       # What read queue length does an incoming req see
system.mem_ctrls.rdQLenPdf::2                      66                       # What read queue length does an incoming req see
system.mem_ctrls.rdQLenPdf::3                      15                       # What read queue length does an incoming req see
system.mem_ctrls.rdQLenPdf::4                       3                       # What read queue length does an incoming req see
system.mem_ctrls.rdQLenPdf::5                       0                       # What read queue length does an incoming req see
system.mem_ctrls.rdQLenPdf::6                       0                       # What read queue length does an incoming req see
system.mem_ctrls.rdQLenPdf::7                       0                       # What read queue length does an incoming req see
system.mem_ctrls.rdQLenPdf::8                       0                       # What read queue length does an incoming req see
system.mem_ctrls.rdQLenPdf::9                       0                       # What read queue length does an incoming req see
system.mem_ctrls.rdQLenPdf::10                      0                       # What read queue length does an incoming req see
system.mem_ctrls.rdQLenPdf::11                      0                       # What read queue length does an incoming req see
system.mem_ctrls.rdQLenPdf::12                      0                       # What read queue length does an incoming req see
system.mem_ctrls.rdQLenPdf::13                      0                       # What read queue length does an incoming req see
system.mem_ctrls.rdQLenPdf::14                      0                       # What read queue length does an incoming req see
system.mem_ctrls.rdQLenPdf::15                      0                       # What read queue length does an incoming req see
system.mem_ctrls.rdQLenPdf::16                      0                       # What read queue length does an incoming req see
system.mem_ctrls.rdQLenPdf::17                      0                       # What read queue length does an incoming req see
system.mem_ctrls.rdQLenPdf::18                      0                       # What read queue length does an incoming req see
system.mem_ctrls.rdQLenPdf::19                      0                       # What read queue length does an incoming req see
system.mem_ctrls.rdQLenPdf::20                      0                       # What read queue length does an incoming req see
system.mem_ctrls.rdQLenPdf::21                      0                       # What read queue length does an incoming req see
system.mem_ctrls.rdQLenPdf::22                      0                       # What read queue length does an incoming req see
system.mem_ctrls.rdQLenPdf::23                      0                       # What read queue length does an incoming req see
system.mem_ctrls.rdQLenPdf::24                      0                       # What read queue length does an incoming req see
system.mem_ctrls.rdQLenPdf::25                      0                       # What read queue length does an incoming req see
system.mem_ctrls.rdQLenPdf::26                      0                       # What read queue length does an incoming req see
system.mem_ctrls.rdQLenPdf::27                      0                       # What read queue length does an incoming req see
system.mem_ctrls.rdQLenPdf::28                      0                       # What read queue length does an incoming req see
system.mem_ctrls.rdQLenPdf::29                      0                       # What read queue length does an incoming req see
system.mem_ctrls.rdQLenPdf::30                      0                       # What read queue length does an incoming req see
system.mem_ctrls.rdQLenPdf::31                      0                       # What read queue length does an incoming req see
system.mem_ctrls.wrQLenPdf::0                       1                       # What write queue length does an incoming req see
system.mem_ctrls.wrQLenPdf::1                       1                       # What write queue length does an incoming req see
system.mem_ctrls.wrQLenPdf::2                       1                       # What write queue length does an incoming req see
system.mem_ctrls.wrQLenPdf::3                       1                       # What write queue length does an incoming req see
system.mem_ctrls.wrQLenPdf::4                       1                       # What write queue length does an incoming req see
system.mem_ctrls.wrQLenPdf::5                       1                       # What write queue length does an incoming req see
system.mem_ctrls.wrQLenPdf::6                       1                       # What write queue length does an incoming req see
system.mem_ctrls.wrQLenPdf::7                       1                       # What write queue length does an incoming req see
system.mem_ctrls.wrQLenPdf::8                       1                       # What write queue length does an incoming req see
system.mem_ctrls.wrQLenPdf::9                       1                       # What write queue length does an incoming req see
system.mem_ctrls.wrQLenPdf::10                      1                       # What write queue length does an incoming req see
system.mem_ctrls.wrQLenPdf::11                      1                       # What write queue length does an incoming req see
system.mem_ctrls.wrQLenPdf::12                      1                       # What write queue length does an incoming req see
system.mem_ctrls.wrQLenPdf::13                      1                       # What write queue length does an incoming req see
system.mem_ctrls.wrQLenPdf::14                      1                       # What write queue length does an incoming req see
[...]
system.cpu.itb_walker_cache.blocked_cycles::no_mshrs            0                       # number of cycles access was blocked
system.cpu.itb_walker_cache.blocked_cycles::no_targets            0                       # number of cycles access was blocked
system.cpu.itb_walker_cache.blocked::no_mshrs            0                       # number of cycles access was blocked
system.cpu.itb_walker_cache.blocked::no_targets            0                       # number of cycles access was blocked
system.cpu.itb_walker_cache.avg_blocked_cycles::no_mshrs          nan                       # average number of cycles each access was blocked
system.cpu.itb_walker_cache.avg_blocked_cycles::no_targets          nan                       # average number of cycles each access was blocked
system.cpu.itb_walker_cache.replacements            0                       # number of replacements
system.cpu.itb_walker_cache.tags.pwrStateResidencyTicks::UNDEFINED  11146210000                       # Cumulative time (in ticks) in various power states
system.cpu.itb_walker_cache.tags.tagsinuse            0                       # Cycle average of tags in use
system.cpu.itb_walker_cache.tags.total_refs            0                       # Total number of references to valid blocks.
system.cpu.itb_walker_cache.tags.sampled_refs            0                       # Sample count of references to valid blocks.
system.cpu.itb_walker_cache.tags.avg_refs          nan                       # Average number of references to valid blocks.
system.cpu.itb_walker_cache.tags.warmup_cycle            0                       # Cycle when the warmup percentage was hit.
system.cpu.itb_walker_cache.tags.tag_accesses            0                       # Number of tag accesses
system.cpu.itb_walker_cache.tags.data_accesses            0                       # Number of data accesses
system.cpu.itb.walker.pwrStateResidencyTicks::UNDEFINED  11146210000                       # Cumulative time (in ticks) in various power states
system.cpu.itb.stage2_mmu.stage2_tlb.walker.pwrStateResidencyTicks::UNDEFINED  11146210000                       # Cumulative time (in ticks) in various power states
system.cpu.dtb_walker_cache.pwrStateResidencyTicks::UNDEFINED  11146210000                       # Cumulative time (in ticks) in various power states
system.cpu.dtb_walker_cache.blocked_cycles::no_mshrs            0                       # number of cycles access was blocked
system.cpu.dtb_walker_cache.blocked_cycles::no_targets            0                       # number of cycles access was blocked
system.cpu.dtb_walker_cache.blocked::no_mshrs            0                       # number of cycles access was blocked
system.cpu.dtb_walker_cache.blocked::no_targets            0                       # number of cycles access was blocked
system.cpu.dtb_walker_cache.avg_blocked_cycles::no_mshrs          nan                       # average number of cycles each access was blocked
system.cpu.dtb_walker_cache.avg_blocked_cycles::no_targets          nan                       # average number of cycles each access was blocked
system.cpu.dtb_walker_cache.replacements            0                       # number of replacements
system.cpu.dtb_walker_cache.tags.pwrStateResidencyTicks::UNDEFINED  11146210000                       # Cumulative time (in ticks) in various power states
system.cpu.dtb_walker_cache.tags.tagsinuse            0                       # Cycle average of tags in use
system.cpu.dtb_walker_cache.tags.total_refs            0                       # Total number of references to valid blocks.
system.cpu.dtb_walker_cache.tags.sampled_refs            0                       # Sample count of references to valid blocks.
system.cpu.dtb_walker_cache.tags.avg_refs          nan                       # Average number of references to valid blocks.
system.cpu.dtb_walker_cache.tags.warmup_cycle            0                       # Cycle when the warmup percentage was hit.
system.cpu.dtb_walker_cache.tags.tag_accesses            0                       # Number of tag accesses
system.cpu.dtb_walker_cache.tags.data_accesses            0                       # Number of data accesses
system.cpu.dcache.pwrStateResidencyTicks::UNDEFINED  11146210000                       # Cumulative time (in ticks) in various power states
system.cpu.dcache.demand_hits::.cpu.data     11266286                       # number of demand (read+write) hits
system.cpu.dcache.demand_hits::total         11266286                       # number of demand (read+write) hits
system.cpu.dcache.overall_hits::.cpu.data     11266286                       # number of overall hits
system.cpu.dcache.overall_hits::total        11266286                       # number of overall hits
system.cpu.dcache.demand_misses::.cpu.data        43627                       # number of demand (read+write) misses
system.cpu.dcache.demand_misses::total          43627                       # number of demand (read+write) misses
system.cpu.dcache.overall_misses::.cpu.data        43627                       # number of overall misses
system.cpu.dcache.overall_misses::total         43627                       # number of overall misses
system.cpu.dcache.demand_miss_latency::.cpu.data   1107772125                       # number of demand (read+write) miss cycles
system.cpu.dcache.demand_miss_latency::total   1107772125                       # number of demand (read+write) miss cycles
system.cpu.dcache.overall_miss_latency::.cpu.data   1107772125                       # number of overall miss cycles
system.cpu.dcache.overall_miss_latency::total   1107772125                       # number of overall miss cycles
system.cpu.dcache.demand_accesses::.cpu.data     11309913                       # number of demand (read+write) accesses
system.cpu.dcache.demand_accesses::total     11309913                       # number of demand (read+write) accesses
system.cpu.dcache.overall_accesses::.cpu.data     11309913                       # number of overall (read+write) accesses
system.cpu.dcache.overall_accesses::total     11309913                       # number of overall (read+write) accesses
system.cpu.dcache.demand_miss_rate::.cpu.data     0.003857                       # miss rate for demand accesses
system.cpu.dcache.demand_miss_rate::total     0.003857                       # miss rate for demand accesses
system.cpu.dcache.overall_miss_rate::.cpu.data     0.003857                       # miss rate for overall accesses
system.cpu.dcache.overall_miss_rate::total     0.003857                       # miss rate for overall accesses
system.cpu.dcache.demand_avg_miss_latency::.cpu.data 25391.893208                       # average overall miss latency
system.cpu.dcache.demand_avg_miss_latency::total 25391.893208                       # average overall miss latency
system.cpu.dcache.overall_avg_miss_latency::.cpu.data 25391.893208                       # average overall miss latency
system.cpu.dcache.overall_avg_miss_latency::total 25391.893208                       # average overall miss latency
system.cpu.dcache.blocked_cycles::no_mshrs            0                       # number of cycles access was blocked
system.cpu.dcache.blocked_cycles::no_targets         2424                       # number of cycles access was blocked
system.cpu.dcache.blocked::no_mshrs                 0                       # number of cycles access was blocked
system.cpu.dcache.blocked::no_targets              33                       # number of cycles access was blocked
system.cpu.dcache.avg_blocked_cycles::no_mshrs          nan                       # average number of cycles each access was blocked
system.cpu.dcache.avg_blocked_cycles::no_targets    73.454545                       # average number of cycles each access was blocked
system.cpu.dcache.writebacks::.writebacks        34243                       # number of writebacks
system.cpu.dcache.writebacks::total             34243                       # number of writebacks
system.cpu.dcache.demand_mshr_hits::.cpu.data         8872                       # number of demand (read+write) MSHR hits
system.cpu.dcache.demand_mshr_hits::total         8872                       # number of demand (read+write) MSHR hits
system.cpu.dcache.overall_mshr_hits::.cpu.data         8872                       # number of overall MSHR hits
system.cpu.dcache.overall_mshr_hits::total         8872                       # number of overall MSHR hits
system.cpu.dcache.demand_mshr_misses::.cpu.data        34755                       # number of demand (read+write) MSHR misses
system.cpu.dcache.demand_mshr_misses::total        34755                       # number of demand (read+write) MSHR misses
system.cpu.dcache.overall_mshr_misses::.cpu.data        34755                       # number of overall MSHR misses
system.cpu.dcache.overall_mshr_misses::total        34755                       # number of overall MSHR misses
system.cpu.dcache.demand_mshr_miss_latency::.cpu.data    816411125                       # number of demand (read+write) MSHR miss cycles
system.cpu.dcache.demand_mshr_miss_latency::total    816411125                       # number of demand (read+write) MSHR miss cycles
system.cpu.dcache.overall_mshr_miss_latency::.cpu.data    816411125                       # number of overall MSHR miss cycles
system.cpu.dcache.overall_mshr_miss_latency::total    816411125                       # number of overall MSHR miss cycles
system.cpu.dcache.demand_mshr_miss_rate::.cpu.data     0.003073                       # mshr miss rate for demand accesses
system.cpu.dcache.demand_mshr_miss_rate::total     0.003073                       # mshr miss rate for demand accesses
system.cpu.dcache.overall_mshr_miss_rate::.cpu.data     0.003073                       # mshr miss rate for overall accesses
system.cpu.dcache.overall_mshr_miss_rate::total     0.003073                       # mshr miss rate for overall accesses
system.cpu.dcache.demand_avg_mshr_miss_latency::.cpu.data 23490.465401                       # average overall mshr miss latency
system.cpu.dcache.demand_avg_mshr_miss_latency::total 23490.465401                       # average overall mshr miss latency
system.cpu.dcache.overall_avg_mshr_miss_latency::.cpu.data 23490.465401                       # average overall mshr miss latency
system.cpu.dcache.overall_avg_mshr_miss_latency::total 23490.465401                       # average overall mshr miss latency
system.cpu.dcache.replacements                  34243                       # number of replacements
system.cpu.dcache.ReadReq_hits::.cpu.data      7532560                       # number of ReadReq hits
system.cpu.dcache.ReadReq_hits::total         7532560                       # number of ReadReq hits
system.cpu.dcache.ReadReq_misses::.cpu.data        30255                       # number of ReadReq misses
system.cpu.dcache.ReadReq_misses::total         30255                       # number of ReadReq misses
system.cpu.dcache.ReadReq_miss_latency::.cpu.data    718935375                       # number of ReadReq miss cycles
system.cpu.dcache.ReadReq_miss_latency::total    718935375                       # number of ReadReq miss cycles
system.cpu.dcache.ReadReq_accesses::.cpu.data      7562815                       # number of ReadReq accesses(hits+misses)
system.cpu.dcache.ReadReq_accesses::total      7562815                       # number of ReadReq accesses(hits+misses)
system.cpu.dcache.ReadReq_miss_rate::.cpu.data     0.004000                       # miss rate for ReadReq accesses
system.cpu.dcache.ReadReq_miss_rate::total     0.004000                       # miss rate for ReadReq accesses
system.cpu.dcache.ReadReq_avg_miss_latency::.cpu.data 23762.530987                       # average ReadReq miss latency
system.cpu.dcache.ReadReq_avg_miss_latency::total 23762.530987                       # average ReadReq miss latency
system.cpu.dcache.ReadReq_mshr_hits::.cpu.data         4744                       # number of ReadReq MSHR hits
system.cpu.dcache.ReadReq_mshr_hits::total         4744                       # number of ReadReq MSHR hits
system.cpu.dcache.ReadReq_mshr_misses::.cpu.data        25511                       # number of ReadReq MSHR misses
system.cpu.dcache.ReadReq_mshr_misses::total        25511                       # number of ReadReq MSHR misses
system.cpu.dcache.ReadReq_mshr_miss_latency::.cpu.data    563808625                       # number of ReadReq MSHR miss cycles
system.cpu.dcache.ReadReq_mshr_miss_latency::total    563808625                       # number of ReadReq MSHR miss cycles
system.cpu.dcache.ReadReq_mshr_miss_rate::.cpu.data     0.003373                       # mshr miss rate for ReadReq accesses
system.cpu.dcache.ReadReq_mshr_miss_rate::total     0.003373                       # mshr miss rate for ReadReq accesses
system.cpu.dcache.ReadReq_avg_mshr_miss_latency::.cpu.data 22100.608561                       # average ReadReq mshr miss latency
system.cpu.dcache.ReadReq_avg_mshr_miss_latency::total 22100.608561                       # average ReadReq mshr miss latency
system.cpu.dcache.WriteReq_hits::.cpu.data      3733726                       # number of WriteReq hits
system.cpu.dcache.WriteReq_hits::total        3733726                       # number of WriteReq hits
system.cpu.dcache.WriteReq_misses::.cpu.data        13372                       # number of WriteReq misses
system.cpu.dcache.WriteReq_misses::total        13372                       # number of WriteReq misses
system.cpu.dcache.WriteReq_miss_latency::.cpu.data    388836750                       # number of WriteReq miss cycles
system.cpu.dcache.WriteReq_miss_latency::total    388836750                       # number of WriteReq miss cycles
system.cpu.dcache.WriteReq_accesses::.cpu.data      3747098                       # number of WriteReq accesses(hits+misses)
system.cpu.dcache.WriteReq_accesses::total      3747098                       # number of WriteReq accesses(hits+misses)
system.cpu.dcache.WriteReq_miss_rate::.cpu.data     0.003569                       # miss rate for WriteReq accesses
system.cpu.dcache.WriteReq_miss_rate::total     0.003569                       # miss rate for WriteReq accesses
system.cpu.dcache.WriteReq_avg_miss_latency::.cpu.data 29078.428806                       # average WriteReq miss latency
system.cpu.dcache.WriteReq_avg_miss_latency::total 29078.428806                       # average WriteReq miss latency
system.cpu.dcache.WriteReq_mshr_hits::.cpu.data         4128                       # number of WriteReq MSHR hits
system.cpu.dcache.WriteReq_mshr_hits::total         4128                       # number of WriteReq MSHR hits
system.cpu.dcache.WriteReq_mshr_misses::.cpu.data         9244                       # number of WriteReq MSHR misses
system.cpu.dcache.WriteReq_mshr_misses::total         9244                       # number of WriteReq MSHR misses
system.cpu.dcache.WriteReq_mshr_miss_latency::.cpu.data    252602500                       # number of WriteReq MSHR miss cycles
system.cpu.dcache.WriteReq_mshr_miss_latency::total    252602500                       # number of WriteReq MSHR miss cycles
system.cpu.dcache.WriteReq_mshr_miss_rate::.cpu.data     0.002467                       # mshr miss rate for WriteReq accesses
system.cpu.dcache.WriteReq_mshr_miss_rate::total     0.002467                       # mshr miss rate for WriteReq accesses
system.cpu.dcache.WriteReq_avg_mshr_miss_latency::.cpu.data 27326.103418                       # average WriteReq mshr miss latency
system.cpu.dcache.WriteReq_avg_mshr_miss_latency::total 27326.103418                       # average WriteReq mshr miss latency
system.cpu.dcache.LoadLockedReq_hits::.cpu.data           49                       # number of LoadLockedReq hits
system.cpu.dcache.LoadLockedReq_hits::total           49                       # number of LoadLockedReq hits
system.cpu.dcache.LoadLockedReq_misses::.cpu.data            2                       # number of LoadLockedReq misses
system.cpu.dcache.LoadLockedReq_misses::total            2                       # number of LoadLockedReq misses
system.cpu.dcache.LoadLockedReq_miss_latency::.cpu.data       100000                       # number of LoadLockedReq miss cycles
system.cpu.dcache.LoadLockedReq_miss_latency::total       100000                       # number of LoadLockedReq miss cycles
system.cpu.dcache.LoadLockedReq_accesses::.cpu.data           51                       # number of LoadLockedReq accesses(hits+misses)
system.cpu.dcache.LoadLockedReq_accesses::total           51                       # number of LoadLockedReq accesses(hits+misses)
system.cpu.dcache.LoadLockedReq_miss_rate::.cpu.data     0.039216                       # miss rate for LoadLockedReq accesses
system.cpu.dcache.LoadLockedReq_miss_rate::total     0.039216                       # miss rate for LoadLockedReq accesses
system.cpu.dcache.LoadLockedReq_avg_miss_latency::.cpu.data        50000                       # average LoadLockedReq miss latency
system.cpu.dcache.LoadLockedReq_avg_miss_latency::total        50000                       # average LoadLockedReq miss latency
system.cpu.dcache.LoadLockedReq_mshr_hits::.cpu.data            2                       # number of LoadLockedReq MSHR hits
system.cpu.dcache.LoadLockedReq_mshr_hits::total            2                       # number of LoadLockedReq MSHR hits
system.cpu.dcache.StoreCondReq_hits::.cpu.data           51                       # number of StoreCondReq hits
system.cpu.dcache.StoreCondReq_hits::total           51                       # number of StoreCondReq hits
system.cpu.dcache.StoreCondReq_accesses::.cpu.data           51                       # number of StoreCondReq accesses(hits+misses)
system.cpu.dcache.StoreCondReq_accesses::total           51                       # number of StoreCondReq accesses(hits+misses)
system.cpu.dcache.tags.pwrStateResidencyTicks::UNDEFINED  11146210000                       # Cumulative time (in ticks) in various power states
system.cpu.dcache.tags.tagsinuse           510.140663                       # Cycle average of tags in use
system.cpu.dcache.tags.total_refs            11301141                       # Total number of references to valid blocks.
system.cpu.dcache.tags.sampled_refs             34755                       # Sample count of references to valid blocks.
system.cpu.dcache.tags.avg_refs            325.165904                       # Average number of references to valid blocks.
system.cpu.dcache.tags.warmup_cycle            149000                       # Cycle when the warmup percentage was hit.
system.cpu.dcache.tags.occ_blocks::.cpu.data   510.140663                       # Average occupied blocks per requestor
system.cpu.dcache.tags.occ_percent::.cpu.data     0.996368                       # Average percentage of cache occupancy
system.cpu.dcache.tags.occ_percent::total     0.996368                       # Average percentage of cache occupancy
system.cpu.dcache.tags.occ_task_id_blocks::1024          512                       # Occupied blocks per task id
system.cpu.dcache.tags.age_task_id_blocks_1024::0           43                       # Occupied blocks per task id
system.cpu.dcache.tags.age_task_id_blocks_1024::1           54                       # Occupied blocks per task id
system.cpu.dcache.tags.age_task_id_blocks_1024::4          415                       # Occupied blocks per task id
system.cpu.dcache.tags.occ_task_id_percent::1024            1                       # Percentage of cache occupancy per task id
system.cpu.dcache.tags.tag_accesses          45274815                       # Number of tag accesses
system.cpu.dcache.tags.data_accesses         45274815                       # Number of data accesses

---------- End Simulation Statistics   ----------
