
---------- Begin Simulation Statistics ----------
final_tick                                74934102500                       # Number of ticks from beginning of simulation (restored from checkpoints and never reset)
host_inst_rate                                 177476                       # Simulator instruction rate (inst/s)
host_mem_usage                                 693112                       # Number of bytes of host memory used
host_op_rate                                   207055                       # Simulator op (including micro ops) rate (op/s)
host_seconds                                   563.46                       # Real time elapsed on the host
host_tick_rate                              132989720                       # Simulator tick rate (ticks/s)
sim_freq                                 1000000000000                       # Frequency of simulated ticks
sim_insts                                   100000003                       # Number of instructions simulated
sim_ops                                     116666631                       # Number of ops (including micro ops) simulated
sim_seconds                                  0.074934                       # Number of seconds simulated
sim_ticks                                 74934102500                       # Number of ticks simulated
system.cpu.branchPred.BTBCorrect                    0                       # Number of correct BTB predictions (this stat may not work properly.
system.cpu.branchPred.BTBHitPct             99.996892                       # BTB Hit Percentage
system.cpu.branchPred.BTBHits                16665872                       # Number of BTB hits
system.cpu.branchPred.BTBLookups             16666390                       # Number of BTB lookups
system.cpu.branchPred.RASInCorrect                  2                       # Number of incorrect RAS predictions.
system.cpu.branchPred.condIncorrect               638                       # Number of conditional branches incorrect
system.cpu.branchPred.condPredicted          16667641                       # Number of conditional branches predicted
system.cpu.branchPred.indirectHits                 15                       # Number of indirect target hits.
system.cpu.branchPred.indirectLookups             103                       # Number of indirect predictor lookups.
system.cpu.branchPred.indirectMisses               88                       # Number of indirect misses.
system.cpu.branchPred.lookups                16668791                       # Number of BP lookups
system.cpu.branchPred.usedRAS                     312                       # Number of times the RAS was used to get a target.
system.cpu.branchPredindirectMispredicted           57                       # Number of mispredicted indirect branches.
system.cpu.cc_regfile_reads                 418754795                       # number of cc regfile reads
system.cpu.cc_regfile_writes                 99997010                       # number of cc regfile writes
system.cpu.commit.amos                              0                       # Number of atomic instructions committed
system.cpu.commit.branchMispredicts               404                       # The number of times a branch was mispredicted
system.cpu.commit.branches                   16666880                       # Number of branches committed
system.cpu.commit.bw_lim_events                   141                       # number cycles where commit BW limit reached
system.cpu.commit.commitNonSpecStalls              84                       # The number of times commit has been forced to stall to communicate backwards
system.cpu.commit.commitSquashedInsts            3721                       # The number of squashed insts skipped by commit
system.cpu.commit.committedInsts            100000016                       # Number of instructions committed
system.cpu.commit.committedOps              116666644                       # Number of ops (including micro ops) committed
system.cpu.commit.committed_per_cycle::samples    119875226                       # Number of insts commited each cycle
system.cpu.commit.committed_per_cycle::mean     0.973234                       # Number of insts commited each cycle
system.cpu.commit.committed_per_cycle::stdev     1.933719                       # Number of insts commited each cycle
system.cpu.commit.committed_per_cycle::underflows            0      0.00%      0.00% # Number of insts commited each cycle
system.cpu.commit.committed_per_cycle::0     80637631     67.27%     67.27% # Number of insts commited each cycle
system.cpu.commit.committed_per_cycle::1     21528332     17.96%     85.23% # Number of insts commited each cycle
system.cpu.commit.committed_per_cycle::2         1321      0.00%     85.23% # Number of insts commited each cycle
system.cpu.commit.committed_per_cycle::3      2083597      1.74%     86.97% # Number of insts commited each cycle
system.cpu.commit.committed_per_cycle::4      3125050      2.61%     89.57% # Number of insts commited each cycle
system.cpu.commit.committed_per_cycle::5      1736140      1.45%     91.02% # Number of insts commited each cycle
system.cpu.commit.committed_per_cycle::6      7638247      6.37%     97.39% # Number of insts commited each cycle
system.cpu.commit.committed_per_cycle::7      3124767      2.61%    100.00% # Number of insts commited each cycle
system.cpu.commit.committed_per_cycle::8          141      0.00%    100.00% # Number of insts commited each cycle
system.cpu.commit.committed_per_cycle::overflows            0      0.00%    100.00% # Number of insts commited each cycle
system.cpu.commit.committed_per_cycle::min_value            0                       # Number of insts commited each cycle
system.cpu.commit.committed_per_cycle::max_value            8                       # Number of insts commited each cycle
system.cpu.commit.committed_per_cycle::total    119875226                       # Number of insts commited each cycle
system.cpu.commit.fp_insts                          0                       # Number of committed floating point instructions.
system.cpu.commit.function_calls                  172                       # Number of function calls committed.
system.cpu.commit.int_insts                  99999944                       # Number of committed integer instructions.
system.cpu.commit.loads                      16666767                       # Number of loads committed
system.cpu.commit.membars                          37                       # Number of memory barriers committed
system.cpu.commit.op_class_0::No_OpClass            0      0.00%      0.00% # Class of committed instruction
system.cpu.commit.op_class_0::IntAlu         83332777     71.43%     71.43% # Class of committed instruction
system.cpu.commit.op_class_0::IntMult              43      0.00%     71.43% # Class of committed instruction
system.cpu.commit.op_class_0::IntDiv                0      0.00%     71.43% # Class of committed instruction
system.cpu.commit.op_class_0::FloatAdd              0      0.00%     71.43% # Class of committed instruction
system.cpu.commit.op_class_0::FloatCmp              0      0.00%     71.43% # Class of committed instruction
system.cpu.commit.op_class_0::FloatCvt              0      0.00%     71.43% # Class of committed instruction
system.cpu.commit.op_class_0::FloatMult             0      0.00%     71.43% # Class of committed instruction
system.cpu.commit.op_class_0::FloatMultAcc            0      0.00%     71.43% # Class of committed instruction
system.cpu.commit.op_class_0::FloatDiv              0      0.00%     71.43% # Class of committed instruction
system.cpu.commit.op_class_0::FloatMisc             0      0.00%     71.43% # Class of committed instruction
system.cpu.commit.op_class_0::FloatSqrt             0      0.00%     71.43% # Class of committed instruction
system.cpu.commit.op_class_0::SimdAdd               0      0.00%     71.43% # Class of committed instruction
system.cpu.commit.op_class_0::SimdAddAcc            0      0.00%     71.43% # Class of committed instruction
system.cpu.commit.op_class_0::SimdAlu               0      0.00%     71.43% # Class of committed instruction
system.cpu.commit.op_class_0::SimdCmp               0      0.00%     71.43% # Class of committed instruction
system.cpu.commit.op_class_0::SimdCvt               0      0.00%     71.43% # Class of committed instruction
system.cpu.commit.op_class_0::SimdMisc              0      0.00%     71.43% # Class of committed instruction
system.cpu.commit.op_class_0::SimdMult              0      0.00%     71.43% # Class of committed instruction
system.cpu.commit.op_class_0::SimdMultAcc            0      0.00%     71.43% # Class of committed instruction
system.cpu.commit.op_class_0::SimdShift             0      0.00%     71.43% # Class of committed instruction
system.cpu.commit.op_class_0::SimdShiftAcc            0      0.00%     71.43% # Class of committed instruction
system.cpu.commit.op_class_0::SimdDiv               0      0.00%     71.43% # Class of committed instruction
system.cpu.commit.op_class_0::SimdSqrt              0      0.00%     71.43% # Class of committed instruction
system.cpu.commit.op_class_0::SimdFloatAdd            8      0.00%     71.43% # Class of committed instruction
system.cpu.commit.op_class_0::SimdFloatAlu            0      0.00%     71.43% # Class of committed instruction
system.cpu.commit.op_class_0::SimdFloatCmp            9      0.00%     71.43% # Class of committed instruction
system.cpu.commit.op_class_0::SimdFloatCvt            7      0.00%     71.43% # Class of committed instruction
system.cpu.commit.op_class_0::SimdFloatDiv            3      0.00%     71.43% # Class of committed instruction
system.cpu.commit.op_class_0::SimdFloatMisc           30      0.00%     71.43% # Class of committed instruction
system.cpu.commit.op_class_0::SimdFloatMult           19      0.00%     71.43% # Class of committed instruction
system.cpu.commit.op_class_0::SimdFloatMultAcc            6      0.00%     71.43% # Class of committed instruction
system.cpu.commit.op_class_0::SimdFloatSqrt            0      0.00%     71.43% # Class of committed instruction
system.cpu.commit.op_class_0::SimdReduceAdd            0      0.00%     71.43% # Class of committed instruction
system.cpu.commit.op_class_0::SimdReduceAlu            0      0.00%     71.43% # Class of committed instruction
system.cpu.commit.op_class_0::SimdReduceCmp            0      0.00%     71.43% # Class of committed instruction
system.cpu.commit.op_class_0::SimdFloatReduceAdd            0      0.00%     71.43% # Class of committed instruction
system.cpu.commit.op_class_0::SimdFloatReduceCmp            0      0.00%     71.43% # Class of committed instruction
system.cpu.commit.op_class_0::SimdAes               0      0.00%     71.43% # Class of committed instruction
system.cpu.commit.op_class_0::SimdAesMix            0      0.00%     71.43% # Class of committed instruction
system.cpu.commit.op_class_0::SimdSha1Hash            0      0.00%     71.43% # Class of committed instruction
system.cpu.commit.op_class_0::SimdSha1Hash2            0      0.00%     71.43% # Class of committed instruction
system.cpu.commit.op_class_0::SimdSha256Hash            0      0.00%     71.43% # Class of committed instruction
system.cpu.commit.op_class_0::SimdSha256Hash2            0      0.00%     71.43% # Class of committed instruction
system.cpu.commit.op_class_0::SimdShaSigma2            0      0.00%     71.43% # Class of committed instruction
system.cpu.commit.op_class_0::SimdShaSigma3            0      0.00%     71.43% # Class of committed instruction
system.cpu.commit.op_class_0::SimdPredAlu            0      0.00%     71.43% # Class of committed instruction
system.cpu.commit.op_class_0::MemRead        16666767     14.29%     85.71% # Class of committed instruction
system.cpu.commit.op_class_0::MemWrite       16666975     14.29%    100.00% # Class of committed instruction
system.cpu.commit.op_class_0::FloatMemRead            0      0.00%    100.00% # Class of committed instruction
system.cpu.commit.op_class_0::FloatMemWrite            0      0.00%    100.00% # Class of committed instruction
system.cpu.commit.op_class_0::IprAccess             0      0.00%    100.00% # Class of committed instruction
system.cpu.commit.op_class_0::InstPrefetch            0      0.00%    100.00% # Class of committed instruction
system.cpu.commit.op_class_0::total         116666644                       # Class of committed instruction
system.cpu.commit.refs                       33333742                       # Number of memory references committed
system.cpu.commit.swp_count                         0                       # Number of s/w prefetches committed
system.cpu.commit.vec_insts                         0                       # Number of committed Vector instructions.
system.cpu.committedInsts                   100000003                       # Number of Instructions Simulated
system.cpu.committedOps                     116666631                       # Number of Ops (including micro ops) Simulated
system.cpu.cpi                               1.198946                       # CPI: Cycles Per Instruction
system.cpu.cpi_total                         1.198946                       # CPI: Total CPI of All Threads
system.cpu.decode.BlockedCycles              77849002                       # Number of cycles decode is blocked
system.cpu.decode.BranchMispred                   239                       # Number of times decode detected a branch misprediction
system.cpu.decode.BranchResolved             16665967                       # Number of times decode resolved a branch
system.cpu.decode.DecodedInsts              116672851                       # Number of instructions handled by decode
system.cpu.decode.IdleCycles                  3133590                       # Number of cycles decode is idle
system.cpu.decode.RunCycles                  34726384                       # Number of cycles decode is running
system.cpu.decode.SquashCycles                    436                       # Number of cycles decode is squashing
system.cpu.decode.SquashedInsts                  2346                       # Number of squashed instructions handled by decode
system.cpu.decode.UnblockCycles               4166526                       # Number of cycles decode is unblocking
system.cpu.dtb.accesses                             0                       # DTB accesses
system.cpu.dtb.align_faults                         0                       # Number of TLB faults due to alignment restrictions
system.cpu.dtb.domain_faults                        0                       # Number of TLB faults due to domain restrictions
system.cpu.dtb.flush_entries                        0                       # Number of entries that have been flushed from TLB
system.cpu.dtb.flush_tlb                            0                       # Number of times complete TLB was flushed
system.cpu.dtb.flush_tlb_asid                       0                       # Number of times TLB was flushed by ASID
system.cpu.dtb.flush_tlb_mva                        0                       # Number of times TLB was flushed by MVA
system.cpu.dtb.flush_tlb_mva_asid                   0                       # Number of times TLB was flushed by MVA & ASID
system.cpu.dtb.hits                                 0                       # DTB hits
system.cpu.dtb.inst_accesses                        0                       # ITB inst accesses
system.cpu.dtb.inst_hits                            0                       # ITB inst hits
system.cpu.dtb.inst_misses                          0                       # ITB inst misses
system.cpu.dtb.misses                               0                       # DTB misses
system.cpu.dtb.perms_faults                         0                       # Number of TLB faults due to permissions restrictions
system.cpu.dtb.prefetch_faults                      0                       # Number of TLB faults due to prefetch
system.cpu.dtb.read_accesses                        0                       # DTB read accesses
system.cpu.dtb.read_hits                            0                       # DTB read hits
system.cpu.dtb.read_misses                          0                       # DTB read misses
system.cpu.dtb.stage2_mmu.stage2_tlb.accesses            0                       # DTB accesses
system.cpu.dtb.stage2_mmu.stage2_tlb.align_faults            0                       # Number of TLB faults due to alignment restrictions
system.cpu.dtb.stage2_mmu.stage2_tlb.domain_faults            0                       # Number of TLB faults due to domain restrictions
system.cpu.dtb.stage2_mmu.stage2_tlb.flush_entries            0                       # Number of entries that have been flushed from TLB
system.cpu.dtb.stage2_mmu.stage2_tlb.flush_tlb            0                       # Number of times complete TLB was flushed
system.cpu.dtb.stage2_mmu.stage2_tlb.flush_tlb_asid            0                       # Number of times TLB was flushed by ASID
system.cpu.dtb.stage2_mmu.stage2_tlb.flush_tlb_mva            0                       # Number of times TLB was flushed by MVA
system.cpu.dtb.stage2_mmu.stage2_tlb.flush_tlb_mva_asid            0                       # Number of times TLB was flushed by MVA & ASID
system.cpu.dtb.stage2_mmu.stage2_tlb.hits            0                       # DTB hits
system.cpu.dtb.stage2_mmu.stage2_tlb.inst_accesses            0                       # ITB inst accesses
system.cpu.dtb.stage2_mmu.stage2_tlb.inst_hits            0                       # ITB inst hits
system.cpu.dtb.stage2_mmu.stage2_tlb.inst_misses            0                       # ITB inst misses
system.cpu.dtb.stage2_mmu.stage2_tlb.misses            0                       # DTB misses
system.cpu.dtb.stage2_mmu.stage2_tlb.perms_faults            0                       # Number of TLB faults due to permissions restrictions
system.cpu.dtb.stage2_mmu.stage2_tlb.prefetch_faults            0                       # Number of TLB faults due to prefetch
system.cpu.dtb.stage2_mmu.stage2_tlb.read_accesses            0                       # DTB read accesses
system.cpu.dtb.stage2_mmu.stage2_tlb.read_hits            0                       # DTB read hits
system.cpu.dtb.stage2_mmu.stage2_tlb.read_misses            0                       # DTB read misses
system.cpu.dtb.stage2_mmu.stage2_tlb.walker.walkRequestOrigin_Requested::Data            0                       # Table walker requests started/completed, data/inst
system.cpu.dtb.stage2_mmu.stage2_tlb.walker.walkRequestOrigin_Requested::Inst            0                       # Table walker requests started/completed, data/inst
system.cpu.dtb.stage2_mmu.stage2_tlb.walker.walkRequestOrigin_Requested::total            0                       # Table walker requests started/completed, data/inst
system.cpu.dtb.stage2_mmu.stage2_tlb.walker.walkRequestOrigin_Completed::Data            0                       # Table walker requests started/completed, data/inst
system.cpu.dtb.stage2_mmu.stage2_tlb.walker.walkRequestOrigin_Completed::Inst            0                       # Table walker requests started/completed, data/inst
system.cpu.dtb.stage2_mmu.stage2_tlb.walker.walkRequestOrigin_Completed::total            0                       # Table walker requests started/completed, data/inst
system.cpu.dtb.stage2_mmu.stage2_tlb.walker.walkRequestOrigin::total            0                       # Table walker requests started/completed, data/inst
system.cpu.dtb.stage2_mmu.stage2_tlb.walker.walks            0                       # Table walker walks requested
system.cpu.dtb.stage2_mmu.stage2_tlb.write_accesses            0                       # DTB write accesses
system.cpu.dtb.stage2_mmu.stage2_tlb.write_hits            0                       # DTB write hits
system.cpu.dtb.stage2_mmu.stage2_tlb.write_misses            0                       # DTB write misses
system.cpu.dtb.walker.walkRequestOrigin_Requested::Data            0                       # Table walker requests started/completed, data/inst
system.cpu.dtb.walker.walkRequestOrigin_Requested::Inst            0                       # Table walker requests started/completed, data/inst
system.cpu.dtb.walker.walkRequestOrigin_Requested::total            0                       # Table walker requests started/completed, data/inst
system.cpu.dtb.walker.walkRequestOrigin_Completed::Data            0                       # Table walker requests started/completed, data/inst
system.cpu.dtb.walker.walkRequestOrigin_Completed::Inst            0                       # Table walker requests started/completed, data/inst
system.cpu.dtb.walker.walkRequestOrigin_Completed::total            0                       # Table walker requests started/completed, data/inst
system.cpu.dtb.walker.walkRequestOrigin::total            0                       # Table walker requests started/completed, data/inst
system.cpu.dtb.walker.walks                         0                       # Table walker walks requested
system.cpu.dtb.write_accesses                       0                       # DTB write accesses
system.cpu.dtb.write_hits                           0                       # DTB write hits
system.cpu.dtb.write_misses                         0                       # DTB write misses
system.cpu.fetch.Branches                    16668791                       # Number of branches that fetch encountered
system.cpu.fetch.CacheLines                  33335286                       # Number of cache lines fetched
system.cpu.fetch.Cycles                     119865331                       # Number of cycles fetch has run and was not squashing or blocked
system.cpu.fetch.IcacheSquashes                   251                       # Number of outstanding Icache misses that were squashed
system.cpu.fetch.IcacheWaitRetryStallCycles          320                       # Number of stall cycles due to full MSHR
system.cpu.fetch.Insts                      100010200                       # Number of instructions fetch has processed
system.cpu.fetch.MiscStallCycles                  137                       # Number of cycles fetch has spent waiting on interrupts, or bad addresses, or out of MSHRs
system.cpu.fetch.SquashCycles                    1340                       # Number of cycles fetch has spent squashing
system.cpu.fetch.branchRate                  0.139029                       # Number of branch fetches per cycle
system.cpu.fetch.icacheStallCycles               9480                       # Number of cycles fetch is stalled on an Icache miss
system.cpu.fetch.predictedBranches           16666199                       # Number of branches that fetch has predicted taken
system.cpu.fetch.rate                        0.834151                       # Number of inst fetches per cycle
system.cpu.fetch.rateDist::samples          119875938                       # Number of instructions fetched each cycle (Total)
system.cpu.fetch.rateDist::mean              0.973325                       # Number of instructions fetched each cycle (Total)
system.cpu.fetch.rateDist::stdev             1.297280                       # Number of instructions fetched each cycle (Total)
system.cpu.fetch.rateDist::underflows               0      0.00%      0.00% # Number of instructions fetched each cycle (Total)
system.cpu.fetch.rateDist::0                 69524335     58.00%     58.00% # Number of instructions fetched each cycle (Total)
system.cpu.fetch.rateDist::1                 17013902     14.19%     72.19% # Number of instructions fetched each cycle (Total)
system.cpu.fetch.rateDist::2                   348757      0.29%     72.48% # Number of instructions fetched each cycle (Total)
system.cpu.fetch.rateDist::3                 32988944     27.52%    100.00% # Number of instructions fetched each cycle (Total)
system.cpu.fetch.rateDist::overflows                0      0.00%    100.00% # Number of instructions fetched each cycle (Total)
system.cpu.fetch.rateDist::min_value                0                       # Number of instructions fetched each cycle (Total)
system.cpu.fetch.rateDist::max_value                3                       # Number of instructions fetched each cycle (Total)
system.cpu.fetch.rateDist::total            119875938                       # Number of instructions fetched each cycle (Total)
system.cpu.idleCycles                           18627                       # Total number of cycles that the CPU has spent unscheduled due to idling
system.cpu.iew.branchMispredicts                  439                       # Number of branch mispredicts detected at execute
system.cpu.iew.branch_mispredict_rate        0.002634                       # Percentage of branch mispredicts
system.cpu.iew.branch_percentage            13.559576                       # Percentage of branches executed
system.cpu.iew.exec_branches                 16667174                       # Number of branches executed
system.cpu.iew.exec_nop                            39                       # number of nop insts executed
system.cpu.iew.exec_rate                     1.025218                       # Inst execution rate
system.cpu.iew.exec_refs                     39583883                       # number of memory reference insts executed
system.cpu.iew.exec_stores                   16667189                       # Number of stores executed
system.cpu.iew.exec_swp                             0                       # number of swp insts executed
system.cpu.iew.iewBlockCycles                     620                       # Number of cycles IEW is blocking
system.cpu.iew.iewDispLoadInsts              16667674                       # Number of dispatched load instructions
system.cpu.iew.iewDispNonSpecInsts                 67                       # Number of dispatched non-speculative instructions
system.cpu.iew.iewDispSquashedInsts                 0                       # Number of squashed instructions skipped by dispatch
system.cpu.iew.iewDispStoreInsts             16667536                       # Number of dispatched store instructions
system.cpu.iew.iewDispatchedInsts           116670970                       # Number of instructions dispatched to IQ
system.cpu.iew.iewExecLoadInsts              22916694                       # Number of load instructions executed
system.cpu.iew.iewExecSquashedInsts               603                       # Number of squashed instructions skipped in execute
system.cpu.iew.iewExecutedInsts             122918104                       # Number of executed instructions
system.cpu.iew.iewIQFullEvents                      4                       # Number of times the IQ has become full, causing a stall
system.cpu.iew.iewIdleCycles                        0                       # Number of cycles IEW is idle
system.cpu.iew.iewLSQFullEvents                    92                       # Number of times the LSQ has become full, causing a stall
system.cpu.iew.iewSquashCycles                    436                       # Number of cycles IEW is squashing
system.cpu.iew.iewUnblockCycles                   100                       # Number of cycles IEW is unblocking
system.cpu.iew.lsq.thread0.blockedLoads             0                       # Number of blocked loads due to partial load-store forwarding
system.cpu.iew.lsq.thread0.cacheBlocked       1041585                       # Number of times an access to memory failed due to the cache being blocked
system.cpu.iew.lsq.thread0.forwLoads               45                       # Number of loads that had data forwarded from stores
system.cpu.iew.lsq.thread0.ignoredResponses            1                       # Number of memory responses ignored because the instruction is squashed
system.cpu.iew.lsq.thread0.invAddrLoads             0                       # Number of loads ignored due to an invalid address
system.cpu.iew.lsq.thread0.invAddrSwpfs             0                       # Number of software prefetches ignored due to an invalid address
system.cpu.iew.lsq.thread0.memOrderViolation           26                       # Number of memory ordering violations
system.cpu.iew.lsq.thread0.rescheduledLoads            6                       # Number of loads that were rescheduled
system.cpu.iew.lsq.thread0.squashedLoads          905                       # Number of loads squashed
system.cpu.iew.lsq.thread0.squashedStores          558                       # Number of stores squashed
system.cpu.iew.memOrderViolationEvents             26                       # Number of memory order violations
system.cpu.iew.predictedNotTakenIncorrect          402                       # Number of branches that were predicted not taken incorrectly
system.cpu.iew.predictedTakenIncorrect             37                       # Number of branches that were predicted taken incorrectly
system.cpu.iew.wb_consumers                 110762794                       # num instructions consuming a value
system.cpu.iew.wb_count                     116668367                       # cumulative count of insts written-back
system.cpu.iew.wb_fanout                     0.680246                       # average fanout of values written-back
system.cpu.iew.wb_producers                  75345978                       # num instructions producing a value
system.cpu.iew.wb_rate                       0.973091                       # insts written-back per cycle
system.cpu.iew.wb_sent                      116668510                       # cumulative count of insts sent to commit
system.cpu.int_regfile_reads                156249118                       # number of integer regfile reads
system.cpu.int_regfile_writes                66667988                       # number of integer regfile writes
system.cpu.ipc                               0.834066                       # IPC: Instructions Per Cycle
system.cpu.ipc_total                         0.834066                       # IPC: Total IPC of All Threads
system.cpu.iq.FU_type_0::No_OpClass                 0      0.00%      0.00% # Type of FU issued
system.cpu.iq.FU_type_0::IntAlu              83334380     67.80%     67.80% # Type of FU issued
system.cpu.iq.FU_type_0::IntMult                   45      0.00%     67.80% # Type of FU issued
system.cpu.iq.FU_type_0::IntDiv                     0      0.00%     67.80% # Type of FU issued
system.cpu.iq.FU_type_0::FloatAdd                   0      0.00%     67.80% # Type of FU issued
system.cpu.iq.FU_type_0::FloatCmp                   0      0.00%     67.80% # Type of FU issued
system.cpu.iq.FU_type_0::FloatCvt                   0      0.00%     67.80% # Type of FU issued
system.cpu.iq.FU_type_0::FloatMult                  0      0.00%     67.80% # Type of FU issued
system.cpu.iq.FU_type_0::FloatMultAcc               0      0.00%     67.80% # Type of FU issued
system.cpu.iq.FU_type_0::FloatDiv                   0      0.00%     67.80% # Type of FU issued
system.cpu.iq.FU_type_0::FloatMisc                  0      0.00%     67.80% # Type of FU issued
system.cpu.iq.FU_type_0::FloatSqrt                  0      0.00%     67.80% # Type of FU issued
system.cpu.iq.FU_type_0::SimdAdd                    6      0.00%     67.80% # Type of FU issued
system.cpu.iq.FU_type_0::SimdAddAcc                 1      0.00%     67.80% # Type of FU issued
system.cpu.iq.FU_type_0::SimdAlu                    0      0.00%     67.80% # Type of FU issued
system.cpu.iq.FU_type_0::SimdCmp                    0      0.00%     67.80% # Type of FU issued
system.cpu.iq.FU_type_0::SimdCvt                    0      0.00%     67.80% # Type of FU issued
system.cpu.iq.FU_type_0::SimdMisc                   0      0.00%     67.80% # Type of FU issued
system.cpu.iq.FU_type_0::SimdMult                   0      0.00%     67.80% # Type of FU issued
system.cpu.iq.FU_type_0::SimdMultAcc                0      0.00%     67.80% # Type of FU issued
system.cpu.iq.FU_type_0::SimdShift                  5      0.00%     67.80% # Type of FU issued
system.cpu.iq.FU_type_0::SimdShiftAcc               0      0.00%     67.80% # Type of FU issued
system.cpu.iq.FU_type_0::SimdDiv                    0      0.00%     67.80% # Type of FU issued
system.cpu.iq.FU_type_0::SimdSqrt                   0      0.00%     67.80% # Type of FU issued
system.cpu.iq.FU_type_0::SimdFloatAdd               8      0.00%     67.80% # Type of FU issued
system.cpu.iq.FU_type_0::SimdFloatAlu               0      0.00%     67.80% # Type of FU issued
system.cpu.iq.FU_type_0::SimdFloatCmp               9      0.00%     67.80% # Type of FU issued
system.cpu.iq.FU_type_0::SimdFloatCvt               7      0.00%     67.80% # Type of FU issued
system.cpu.iq.FU_type_0::SimdFloatDiv               3      0.00%     67.80% # Type of FU issued
system.cpu.iq.FU_type_0::SimdFloatMisc             35      0.00%     67.80% # Type of FU issued
system.cpu.iq.FU_type_0::SimdFloatMult             19      0.00%     67.80% # Type of FU issued
system.cpu.iq.FU_type_0::SimdFloatMultAcc            6      0.00%     67.80% # Type of FU issued
system.cpu.iq.FU_type_0::SimdFloatSqrt              0      0.00%     67.80% # Type of FU issued
system.cpu.iq.FU_type_0::SimdReduceAdd              0      0.00%     67.80% # Type of FU issued
system.cpu.iq.FU_type_0::SimdReduceAlu              0      0.00%     67.80% # Type of FU issued
system.cpu.iq.FU_type_0::SimdReduceCmp              0      0.00%     67.80% # Type of FU issued
system.cpu.iq.FU_type_0::SimdFloatReduceAdd            0      0.00%     67.80% # Type of FU issued
system.cpu.iq.FU_type_0::SimdFloatReduceCmp            0      0.00%     67.80% # Type of FU issued
system.cpu.iq.FU_type_0::SimdAes                    0      0.00%     67.80% # Type of FU issued
system.cpu.iq.FU_type_0::SimdAesMix                 0      0.00%     67.80% # Type of FU issued
system.cpu.iq.FU_type_0::SimdSha1Hash               0      0.00%     67.80% # Type of FU issued
system.cpu.iq.FU_type_0::SimdSha1Hash2              0      0.00%     67.80% # Type of FU issued
system.cpu.iq.FU_type_0::SimdSha256Hash             0      0.00%     67.80% # Type of FU issued
system.cpu.iq.FU_type_0::SimdSha256Hash2            0      0.00%     67.80% # Type of FU issued
system.cpu.iq.FU_type_0::SimdShaSigma2              0      0.00%     67.80% # Type of FU issued
system.cpu.iq.FU_type_0::SimdShaSigma3              0      0.00%     67.80% # Type of FU issued
system.cpu.iq.FU_type_0::SimdPredAlu                0      0.00%     67.80% # Type of FU issued
system.cpu.iq.FU_type_0::MemRead             22916896     18.64%     86.44% # Type of FU issued
system.cpu.iq.FU_type_0::MemWrite            16667289     13.56%    100.00% # Type of FU issued
system.cpu.iq.FU_type_0::FloatMemRead               0      0.00%    100.00% # Type of FU issued
system.cpu.iq.FU_type_0::FloatMemWrite              0      0.00%    100.00% # Type of FU issued
system.cpu.iq.FU_type_0::IprAccess                  0      0.00%    100.00% # Type of FU issued
system.cpu.iq.FU_type_0::InstPrefetch               0      0.00%    100.00% # Type of FU issued
system.cpu.iq.FU_type_0::total              122918709                       # Type of FU issued
system.cpu.iq.fp_alu_accesses                       0                       # Number of floating point alu accesses
system.cpu.iq.fp_inst_queue_reads                   0                       # Number of floating instruction queue reads
system.cpu.iq.fp_inst_queue_wakeup_accesses            0                       # Number of floating instruction queue wakeup accesses
system.cpu.iq.fp_inst_queue_writes                  0                       # Number of floating instruction queue writes
system.cpu.iq.fu_busy_cnt                    32291793                       # FU busy when requested
system.cpu.iq.fu_busy_rate                   0.262709                       # FU busy rate (busy events/executed inst)
system.cpu.iq.fu_full::No_OpClass                   0      0.00%      0.00% # attempts to use FU when none available
system.cpu.iq.fu_full::IntAlu                27082047     83.87%     83.87% # attempts to use FU when none available
system.cpu.iq.fu_full::IntMult                      1      0.00%     83.87% # attempts to use FU when none available
system.cpu.iq.fu_full::IntDiv                       0      0.00%     83.87% # attempts to use FU when none available
system.cpu.iq.fu_full::FloatAdd                     0      0.00%     83.87% # attempts to use FU when none available
system.cpu.iq.fu_full::FloatCmp                     0      0.00%     83.87% # attempts to use FU when none available
system.cpu.iq.fu_full::FloatCvt                     0      0.00%     83.87% # attempts to use FU when none available
system.cpu.iq.fu_full::FloatMult                    0      0.00%     83.87% # attempts to use FU when none available
system.cpu.iq.fu_full::FloatMultAcc                 0      0.00%     83.87% # attempts to use FU when none available
system.cpu.iq.fu_full::FloatDiv                     0      0.00%     83.87% # attempts to use FU when none available
system.cpu.iq.fu_full::FloatMisc                    0      0.00%     83.87% # attempts to use FU when none available
system.cpu.iq.fu_full::FloatSqrt                    0      0.00%     83.87% # attempts to use FU when none available
system.cpu.iq.fu_full::SimdAdd                      0      0.00%     83.87% # attempts to use FU when none available
system.cpu.iq.fu_full::SimdAddAcc                   0      0.00%     83.87% # attempts to use FU when none available
system.cpu.iq.fu_full::SimdAlu                      0      0.00%     83.87% # attempts to use FU when none available
system.cpu.iq.fu_full::SimdCmp                      0      0.00%     83.87% # attempts to use FU when none available
system.cpu.iq.fu_full::SimdCvt                      0      0.00%     83.87% # attempts to use FU when none available
system.cpu.iq.fu_full::SimdMisc                     0      0.00%     83.87% # attempts to use FU when none available
system.cpu.iq.fu_full::SimdMult                     0      0.00%     83.87% # attempts to use FU when none available
system.cpu.iq.fu_full::SimdMultAcc                  0      0.00%     83.87% # attempts to use FU when none available
system.cpu.iq.fu_full::SimdShift                    0      0.00%     83.87% # attempts to use FU when none available
system.cpu.iq.fu_full::SimdShiftAcc                 0      0.00%     83.87% # attempts to use FU when none available
system.cpu.iq.fu_full::SimdDiv                      0      0.00%     83.87% # attempts to use FU when none available
system.cpu.iq.fu_full::SimdSqrt                     0      0.00%     83.87% # attempts to use FU when none available
system.cpu.iq.fu_full::SimdFloatAdd                 0      0.00%     83.87% # attempts to use FU when none available
system.cpu.iq.fu_full::SimdFloatAlu                 0      0.00%     83.87% # attempts to use FU when none available
system.cpu.iq.fu_full::SimdFloatCmp                 0      0.00%     83.87% # attempts to use FU when none available
system.cpu.iq.fu_full::SimdFloatCvt                 0      0.00%     83.87% # attempts to use FU when none available
system.cpu.iq.fu_full::SimdFloatDiv                 0      0.00%     83.87% # attempts to use FU when none available
system.cpu.iq.fu_full::SimdFloatMisc                1      0.00%     83.87% # attempts to use FU when none available
system.cpu.iq.fu_full::SimdFloatMult                0      0.00%     83.87% # attempts to use FU when none available
system.cpu.iq.fu_full::SimdFloatMultAcc             0      0.00%     83.87% # attempts to use FU when none available
system.cpu.iq.fu_full::SimdFloatSqrt                0      0.00%     83.87% # attempts to use FU when none available
system.cpu.iq.fu_full::SimdReduceAdd                0      0.00%     83.87% # attempts to use FU when none available
system.cpu.iq.fu_full::SimdReduceAlu                0      0.00%     83.87% # attempts to use FU when none available
system.cpu.iq.fu_full::SimdReduceCmp                0      0.00%     83.87% # attempts to use FU when none available
system.cpu.iq.fu_full::SimdFloatReduceAdd            0      0.00%     83.87% # attempts to use FU when none available
system.cpu.iq.fu_full::SimdFloatReduceCmp            0      0.00%     83.87% # attempts to use FU when none available
system.cpu.iq.fu_full::SimdAes                      0      0.00%     83.87% # attempts to use FU when none available
system.cpu.iq.fu_full::SimdAesMix                   0      0.00%     83.87% # attempts to use FU when none available
system.cpu.iq.fu_full::SimdSha1Hash                 0      0.00%     83.87% # attempts to use FU when none available
system.cpu.iq.fu_full::SimdSha1Hash2                0      0.00%     83.87% # attempts to use FU when none available
system.cpu.iq.fu_full::SimdSha256Hash               0      0.00%     83.87% # attempts to use FU when none available
system.cpu.iq.fu_full::SimdSha256Hash2              0      0.00%     83.87% # attempts to use FU when none available
system.cpu.iq.fu_full::SimdShaSigma2                0      0.00%     83.87% # attempts to use FU when none available
system.cpu.iq.fu_full::SimdShaSigma3                0      0.00%     83.87% # attempts to use FU when none available
system.cpu.iq.fu_full::SimdPredAlu                  0      0.00%     83.87% # attempts to use FU when none available
system.cpu.iq.fu_full::MemRead                5208600     16.13%    100.00% # attempts to use FU when none available
system.cpu.iq.fu_full::MemWrite                  1144      0.00%    100.00% # attempts to use FU when none available
system.cpu.iq.fu_full::FloatMemRead                 0      0.00%    100.00% # attempts to use FU when none available
system.cpu.iq.fu_full::FloatMemWrite                0      0.00%    100.00% # attempts to use FU when none available
system.cpu.iq.fu_full::IprAccess                    0      0.00%    100.00% # attempts to use FU when none available
system.cpu.iq.fu_full::InstPrefetch                 0      0.00%    100.00% # attempts to use FU when none available
system.cpu.iq.int_alu_accesses              155210502                       # Number of integer alu accesses
system.cpu.iq.int_inst_queue_reads          398005387                       # Number of integer instruction queue reads
system.cpu.iq.int_inst_queue_wakeup_accesses    116668367                       # Number of integer instruction queue wakeup accesses
system.cpu.iq.int_inst_queue_writes         116675239                       # Number of integer instruction queue writes
system.cpu.iq.iqInstsAdded                  116670822                       # Number of instructions added to the IQ (excludes non-spec)
system.cpu.iq.iqInstsIssued                 122918709                       # Number of instructions issued
system.cpu.iq.iqNonSpecInstsAdded                 109                       # Number of non-speculative instructions added to the IQ
system.cpu.iq.iqSquashedInstsExamined            4282                       # Number of squashed instructions iterated over during squash; mainly for profiling
system.cpu.iq.iqSquashedInstsIssued               240                       # Number of squashed instructions issued
system.cpu.iq.iqSquashedNonSpecRemoved             25                       # Number of squashed non-spec instructions that were removed
system.cpu.iq.iqSquashedOperandsExamined        10290                       # Number of squashed operands that are examined and possibly removed from graph
system.cpu.iq.issued_per_cycle::samples     119875938                       # Number of insts issued each cycle
system.cpu.iq.issued_per_cycle::mean         1.025383                       # Number of insts issued each cycle
system.cpu.iq.issued_per_cycle::stdev        1.276609                       # Number of insts issued each cycle
system.cpu.iq.issued_per_cycle::underflows            0      0.00%      0.00% # Number of insts issued each cycle
system.cpu.iq.issued_per_cycle::0            67442930     56.26%     56.26% # Number of insts issued each cycle
system.cpu.iq.issued_per_cycle::1             9315469      7.77%     64.03% # Number of insts issued each cycle
system.cpu.iq.issued_per_cycle::2            17138296     14.30%     78.33% # Number of insts issued each cycle
system.cpu.iq.issued_per_cycle::3            24590325     20.51%     98.84% # Number of insts issued each cycle
system.cpu.iq.issued_per_cycle::4             1388917      1.16%    100.00% # Number of insts issued each cycle
system.cpu.iq.issued_per_cycle::5                   1      0.00%    100.00% # Number of insts issued each cycle
system.cpu.iq.issued_per_cycle::6                   0      0.00%    100.00% # Number of insts issued each cycle
system.cpu.iq.issued_per_cycle::7                   0      0.00%    100.00% # Number of insts issued each cycle
system.cpu.iq.issued_per_cycle::8                   0      0.00%    100.00% # Number of insts issued each cycle
system.cpu.iq.issued_per_cycle::overflows            0      0.00%    100.00% # Number of insts issued each cycle
system.cpu.iq.issued_per_cycle::min_value            0                       # Number of insts issued each cycle
system.cpu.iq.issued_per_cycle::max_value            5                       # Number of insts issued each cycle
system.cpu.iq.issued_per_cycle::total       119875938                       # Number of insts issued each cycle
system.cpu.iq.rate                           1.025223                       # Inst issue rate
system.cpu.iq.vec_alu_accesses                      0                       # Number of vector alu accesses
system.cpu.iq.vec_inst_queue_reads                  0                       # Number of vector instruction queue reads
system.cpu.iq.vec_inst_queue_wakeup_accesses            0                       # Number of vector instruction queue wakeup accesses
system.cpu.iq.vec_inst_queue_writes                 0                       # Number of vector instruction queue writes
system.cpu.itb.accesses                             0                       # DTB accesses
system.cpu.itb.align_faults                         0                       # Number of TLB faults due to alignment restrictions
system.cpu.itb.domain_faults                        0                       # Number of TLB faults due to domain restrictions
system.cpu.itb.flush_entries                        0                       # Number of entries that have been flushed from TLB
system.cpu.itb.flush_tlb                            0                       # Number of times complete TLB was flushed
system.cpu.itb.flush_tlb_asid                       0                       # Number of times TLB was flushed by ASID
system.cpu.itb.flush_tlb_mva                        0                       # Number of times TLB was flushed by MVA
system.cpu.itb.flush_tlb_mva_asid                   0                       # Number of times TLB was flushed by MVA & ASID
system.cpu.itb.hits                                 0                       # DTB hits
system.cpu.itb.inst_accesses                        0                       # ITB inst accesses
system.cpu.itb.inst_hits                            0                       # ITB inst hits
system.cpu.itb.inst_misses                          0                       # ITB inst misses
system.cpu.itb.misses                               0                       # DTB misses
system.cpu.itb.perms_faults                         0                       # Number of TLB faults due to permissions restrictions
system.cpu.itb.prefetch_faults                      0                       # Number of TLB faults due to prefetch
system.cpu.itb.read_accesses                        0                       # DTB read accesses
system.cpu.itb.read_hits                            0                       # DTB read hits
system.cpu.itb.read_misses                          0                       # DTB read misses
system.cpu.itb.stage2_mmu.stage2_tlb.accesses            0                       # DTB accesses
system.cpu.itb.stage2_mmu.stage2_tlb.align_faults            0                       # Number of TLB faults due to alignment restrictions
system.cpu.itb.stage2_mmu.stage2_tlb.domain_faults            0                       # Number of TLB faults due to domain restrictions
system.cpu.itb.stage2_mmu.stage2_tlb.flush_entries            0                       # Number of entries that have been flushed from TLB
system.cpu.itb.stage2_mmu.stage2_tlb.flush_tlb            0                       # Number of times complete TLB was flushed
system.cpu.itb.stage2_mmu.stage2_tlb.flush_tlb_asid            0                       # Number of times TLB was flushed by ASID
system.cpu.itb.stage2_mmu.stage2_tlb.flush_tlb_mva            0                       # Number of times TLB was flushed by MVA
system.cpu.itb.stage2_mmu.stage2_tlb.flush_tlb_mva_asid            0                       # Number of times TLB was flushed by MVA & ASID
system.cpu.itb.stage2_mmu.stage2_tlb.hits            0                       # DTB hits
system.cpu.itb.stage2_mmu.stage2_tlb.inst_accesses            0                       # ITB inst accesses
system.cpu.itb.stage2_mmu.stage2_tlb.inst_hits            0                       # ITB inst hits
system.cpu.itb.stage2_mmu.stage2_tlb.inst_misses            0                       # ITB inst misses
system.cpu.itb.stage2_mmu.stage2_tlb.misses            0                       # DTB misses
system.cpu.itb.stage2_mmu.stage2_tlb.perms_faults            0                       # Number of TLB faults due to permissions restrictions
system.cpu.itb.stage2_mmu.stage2_tlb.prefetch_faults            0                       # Number of TLB faults due to prefetch
system.cpu.itb.stage2_mmu.stage2_tlb.read_accesses            0                       # DTB read accesses
system.cpu.itb.stage2_mmu.stage2_tlb.read_hits            0                       # DTB read hits
system.cpu.itb.stage2_mmu.stage2_tlb.read_misses            0                       # DTB read misses
system.cpu.itb.stage2_mmu.stage2_tlb.walker.walkRequestOrigin_Requested::Data            0                       # Table walker requests started/completed, data/inst
system.cpu.itb.stage2_mmu.stage2_tlb.walker.walkRequestOrigin_Requested::Inst            0                       # Table walker requests started/completed, data/inst
system.cpu.itb.stage2_mmu.stage2_tlb.walker.walkRequestOrigin_Requested::total            0                       # Table walker requests started/completed, data/inst
system.cpu.itb.stage2_mmu.stage2_tlb.walker.walkRequestOrigin_Completed::Data            0                       # Table walker requests started/completed, data/inst
system.cpu.itb.stage2_mmu.stage2_tlb.walker.walkRequestOrigin_Completed::Inst            0                       # Table walker requests started/completed, data/inst
system.cpu.itb.stage2_mmu.stage2_tlb.walker.walkRequestOrigin_Completed::total            0                       # Table walker requests started/completed, data/inst
system.cpu.itb.stage2_mmu.stage2_tlb.walker.walkRequestOrigin::total            0                       # Table walker requests started/completed, data/inst
system.cpu.itb.stage2_mmu.stage2_tlb.walker.walks            0                       # Table walker walks requested
system.cpu.itb.stage2_mmu.stage2_tlb.write_accesses            0                       # DTB write accesses
system.cpu.itb.stage2_mmu.stage2_tlb.write_hits            0                       # DTB write hits
system.cpu.itb.stage2_mmu.stage2_tlb.write_misses            0                       # DTB write misses
system.cpu.itb.walker.walkRequestOrigin_Requested::Data            0                       # Table walker requests started/completed, data/inst
system.cpu.itb.walker.walkRequestOrigin_Requested::Inst            0                       # Table walker requests started/completed, data/inst
system.cpu.itb.walker.walkRequestOrigin_Requested::total            0                       # Table walker requests started/completed, data/inst
system.cpu.itb.walker.walkRequestOrigin_Completed::Data            0                       # Table walker requests started/completed, data/inst
system.cpu.itb.walker.walkRequestOrigin_Completed::Inst            0                       # Table walker requests started/completed, data/inst
system.cpu.itb.walker.walkRequestOrigin_Completed::total            0                       # Table walker requests started/completed, data/inst
system.cpu.itb.walker.walkRequestOrigin::total            0                       # Table walker requests started/completed, data/inst
system.cpu.itb.walker.walks                         0                       # Table walker walks requested
system.cpu.itb.write_accesses                       0                       # DTB write accesses
system.cpu.itb.write_hits                           0                       # DTB write hits
system.cpu.itb.write_misses                         0                       # DTB write misses
system.cpu.memDep0.conflictingLoads               110                       # Number of conflicting loads.
system.cpu.memDep0.conflictingStores               58                       # Number of conflicting stores.
system.cpu.memDep0.insertedLoads             16667674                       # Number of loads inserted to the mem dependence unit.
system.cpu.memDep0.insertedStores            16667536                       # Number of stores inserted to the mem dependence unit.
system.cpu.misc_regfile_reads                33336291                       # number of misc regfile reads
system.cpu.misc_regfile_writes                    197                       # number of misc regfile writes
system.cpu.numCycles                        119894565                       # number of cpu cycles simulated
system.cpu.numWorkItemsCompleted                    0                       # number of work items this cpu completed
system.cpu.numWorkItemsStarted                      0                       # number of work items this cpu started
system.cpu.rename.BlockCycles                27050782                       # Number of cycles rename is blocking
system.cpu.rename.CommittedMaps             166663159                       # Number of HB maps that are committed
system.cpu.rename.IQFullEvents                     12                       # Number of times rename has blocked due to IQ full
system.cpu.rename.IdleCycles                  5218106                       # Number of cycles rename is idle
system.cpu.rename.ROBFullEvents              49404906                       # Number of times rename has blocked due to ROB full
system.cpu.rename.RenameLookups             533353244                       # Number of register rename lookups that rename has made
system.cpu.rename.RenamedInsts              116671502                       # Number of instructions processed by rename
system.cpu.rename.RenamedOperands           166669114                       # Number of destination operands rename has renamed
system.cpu.rename.RunCycles                  36808365                       # Number of cycles rename is running
system.cpu.rename.SQFullEvents               45934097                       # Number of times rename has blocked due to SQ full
system.cpu.rename.SquashCycles                    436                       # Number of cycles rename is squashing
system.cpu.rename.SquashedInsts                   515                       # Number of squashed instructions processed by rename
system.cpu.rename.UnblockCycles              50794967                       # Number of cycles rename is unblocking
system.cpu.rename.UndoneMaps                     5924                       # Number of HB maps that are undone due to squashing
system.cpu.rename.int_rename_lookups        150002971                       # Number of integer rename lookups
system.cpu.rename.serializeStallCycles           3282                       # count of cycles rename stalled for serializing inst
system.cpu.rename.serializingInsts                 73                       # count of serializing insts renamed
system.cpu.rename.skidInsts                   8333407                       # count of insts added to the skid buffer
system.cpu.rename.tempSerializingInsts             68                       # count of temporary serializing insts renamed
system.cpu.rename.vec_rename_lookups              323                       # Number of vector rename lookups
system.cpu.rob.rob_reads                    236545294                       # The number of ROB reads
system.cpu.rob.rob_writes                   233341459                       # The number of ROB writes
system.cpu.timesIdled                             294                       # Number of times that the entire CPU went into an idle state and unscheduled itself
system.cpu.vec_regfile_reads                      250                       # number of vector regfile reads
system.cpu.vec_regfile_writes                     181                       # number of vector regfile writes
system.cpu.workload.numSyscalls                    11                       # Number of system calls
system.membus.snoop_filter.hit_multi_requests           18                       # Number of requests hitting in the snoop filter with multiple (>1) holders of the requested data.
system.membus.snoop_filter.hit_multi_snoops            0                       # Number of snoops hitting in the snoop filter with multiple (>1) holders of the requested data.
system.membus.snoop_filter.hit_single_requests      1041259                       # Number of requests hitting in the snoop filter with a single holder of the requested data.
system.membus.snoop_filter.hit_single_snoops            0                       # Number of snoops hitting in the snoop filter with a single holder of the requested data.
system.membus.snoop_filter.tot_requests       2083392                       # Total number of requests made to the snoop filter.
system.membus.snoop_filter.tot_snoops               0                       # Total number of snoops made to the snoop filter.
system.membus.pwrStateResidencyTicks::UNDEFINED  74934102500                       # Cumulative time (in ticks) in various power states
system.membus.trans_dist::ReadResp                506                       # Transaction distribution
system.membus.trans_dist::WritebackDirty      1041145                       # Transaction distribution
system.membus.trans_dist::WritebackClean          114                       # Transaction distribution
system.membus.trans_dist::ReadExReq           1041627                       # Transaction distribution
system.membus.trans_dist::ReadExResp          1041627                       # Transaction distribution
system.membus.trans_dist::ReadCleanReq            392                       # Transaction distribution
system.membus.trans_dist::ReadSharedReq           114                       # Transaction distribution
system.membus.pkt_count_system.cpu.icache.mem_side::system.mem_ctrls.port          814                       # Packet count per connected master and slave (bytes)
system.membus.pkt_count_system.cpu.dcache.mem_side::system.mem_ctrls.port      3124711                       # Packet count per connected master and slave (bytes)
system.membus.pkt_count::total                3125525                       # Packet count per connected master and slave (bytes)
system.membus.pkt_size_system.cpu.icache.mem_side::system.mem_ctrls.port        27008                       # Cumulative packet size per connected master and slave (bytes)
system.membus.pkt_size_system.cpu.dcache.mem_side::system.mem_ctrls.port    133310080                       # Cumulative packet size per connected master and slave (bytes)
system.membus.pkt_size::total               133337088                       # Cumulative packet size per connected master and slave (bytes)
system.membus.snoops                                0                       # Total snoops (count)
system.membus.snoopTraffic                          0                       # Total snoop traffic (bytes)
system.membus.snoop_fanout::samples           1042133                       # Request fanout histogram
system.membus.snoop_fanout::mean             0.000017                       # Request fanout histogram
system.membus.snoop_fanout::stdev            0.004156                       # Request fanout histogram
system.membus.snoop_fanout::underflows              0      0.00%      0.00% # Request fanout histogram
system.membus.snoop_fanout::0                 1042115    100.00%    100.00% # Request fanout histogram
system.membus.snoop_fanout::1                      18      0.00%    100.00% # Request fanout histogram
system.membus.snoop_fanout::2                       0      0.00%    100.00% # Request fanout histogram
system.membus.snoop_fanout::3                       0      0.00%    100.00% # Request fanout histogram
system.membus.snoop_fanout::4                       0      0.00%    100.00% # Request fanout histogram
system.membus.snoop_fanout::overflows               0      0.00%    100.00% # Request fanout histogram
system.membus.snoop_fanout::min_value               0                       # Request fanout histogram
system.membus.snoop_fanout::max_value               1                       # Request fanout histogram
system.membus.snoop_fanout::total             1042133                       # Request fanout histogram
system.membus.reqLayer0.occupancy          7173500500                       # Layer occupancy (ticks)
system.membus.reqLayer0.utilization               9.6                       # Layer utilization (%)
system.membus.respLayer1.occupancy            2084625                       # Layer occupancy (ticks)
system.membus.respLayer1.utilization              0.0                       # Layer utilization (%)
system.membus.respLayer2.occupancy         5498925125                       # Layer occupancy (ticks)
system.membus.respLayer2.utilization              7.3                       # Layer utilization (%)
system.voltage_domain.voltage                       1                       # Voltage in Volts
system.clk_domain.clock                          1000                       # Clock period in ticks
system.cpu_voltage_domain.voltage                   1                       # Voltage in Volts
system.mem_ctrls.pwrStateResidencyTicks::UNDEFINED  74934102500                       # Cumulative time (in ticks) in various power states
system.mem_ctrls.bytes_read::.cpu.inst          25088                       # Number of bytes read from this memory
system.mem_ctrls.bytes_read::.cpu.data       66671424                       # Number of bytes read from this memory
system.mem_ctrls.bytes_read::total           66696512                       # Number of bytes read from this memory
system.mem_ctrls.bytes_inst_read::.cpu.inst        25088                       # Number of instructions bytes read from this memory
system.mem_ctrls.bytes_inst_read::total         25088                       # Number of instructions bytes read from this memory
system.mem_ctrls.bytes_written::.writebacks     66633280                       # Number of bytes written to this memory
system.mem_ctrls.bytes_written::total        66633280                       # Number of bytes written to this memory
system.mem_ctrls.num_reads::.cpu.inst             392                       # Number of read requests responded to by this memory
system.mem_ctrls.num_reads::.cpu.data         1041741                       # Number of read requests responded to by this memory
system.mem_ctrls.num_reads::total             1042133                       # Number of read requests responded to by this memory
system.mem_ctrls.num_writes::.writebacks      1041145                       # Number of write requests responded to by this memory
system.mem_ctrls.num_writes::total            1041145                       # Number of write requests responded to by this memory
system.mem_ctrls.bw_read::.cpu.inst            334801                       # Total read bandwidth from this memory (bytes/s)
system.mem_ctrls.bw_read::.cpu.data         889734070                       # Total read bandwidth from this memory (bytes/s)
system.mem_ctrls.bw_read::total             890068871                       # Total read bandwidth from this memory (bytes/s)
system.mem_ctrls.bw_inst_read::.cpu.inst       334801                       # Instruction read bandwidth from this memory (bytes/s)
system.mem_ctrls.bw_inst_read::total           334801                       # Instruction read bandwidth from this memory (bytes/s)
system.mem_ctrls.bw_write::.writebacks      889225036                       # Write bandwidth from this memory (bytes/s)
system.mem_ctrls.bw_write::total            889225036                       # Write bandwidth from this memory (bytes/s)
system.mem_ctrls.bw_total::.writebacks      889225036                       # Total bandwidth to/from this memory (bytes/s)
system.mem_ctrls.bw_total::.cpu.inst           334801                       # Total bandwidth to/from this memory (bytes/s)
system.mem_ctrls.bw_total::.cpu.data        889734070                       # Total bandwidth to/from this memory (bytes/s)
system.mem_ctrls.bw_total::total           1779293907                       # Total bandwidth to/from this memory (bytes/s)
system.mem_ctrls.avgPriority_.writebacks::samples   1041241.00                       # Average QoS priority value for accepted requests
system.mem_ctrls.avgPriority_.cpu.inst::samples       387.00                       # Average QoS priority value for accepted requests
system.mem_ctrls.avgPriority_.cpu.data::samples   1041741.00                       # Average QoS priority value for accepted requests
system.mem_ctrls.priorityMinLatency      0.000000018750                       # per QoS priority minimum request to response latency (s)
system.mem_ctrls.priorityMaxLatency      0.000054653750                       # per QoS priority maximum request to response latency (s)
system.mem_ctrls.numReadWriteTurnArounds        65014                       # Number of turnarounds from READ to WRITE
system.mem_ctrls.numWriteReadTurnArounds        65014                       # Number of turnarounds from WRITE to READ
system.mem_ctrls.numStayReadState             3077497                       # Number of times bus staying in READ state
system.mem_ctrls.numStayWriteState             977913                       # Number of times bus staying in WRITE state
system.mem_ctrls.readReqs                     1042133                       # Number of read requests accepted
system.mem_ctrls.writeReqs                    1041241                       # Number of write requests accepted
system.mem_ctrls.readBursts                   1042133                       # Number of DRAM read bursts, including those serviced by the write queue
system.mem_ctrls.writeBursts                  1041241                       # Number of DRAM write bursts, including those merged in the write queue
system.mem_ctrls.servicedByWrQ                      5                       # Number of DRAM read bursts serviced by the write queue
system.mem_ctrls.mergedWrBursts                     0                       # Number of DRAM write bursts merged with an existing one
system.mem_ctrls.neitherReadNorWriteReqs            0                       # Number of requests that are neither read nor write
system.mem_ctrls.perBankRdBursts::0             65239                       # Per bank write bursts
system.mem_ctrls.perBankRdBursts::1             65202                       # Per bank write bursts
system.mem_ctrls.perBankRdBursts::2             65159                       # Per bank write bursts
system.mem_ctrls.perBankRdBursts::3             65152                       # Per bank write bursts
system.mem_ctrls.perBankRdBursts::4             65152                       # Per bank write bursts
system.mem_ctrls.perBankRdBursts::5             65159                       # Per bank write bursts
system.mem_ctrls.perBankRdBursts::6             65180                       # Per bank write bursts
system.mem_ctrls.perBankRdBursts::7             65169                       # Per bank write bursts
system.mem_ctrls.perBankRdBursts::8             65039                       # Per bank write bursts
system.mem_ctrls.perBankRdBursts::9             65088                       # Per bank write bursts
system.mem_ctrls.perBankRdBursts::10            65062                       # Per bank write bursts
system.mem_ctrls.perBankRdBursts::11            65074                       # Per bank write bursts
system.mem_ctrls.perBankRdBursts::12            65045                       # Per bank write bursts
system.mem_ctrls.perBankRdBursts::13            65099                       # Per bank write bursts
system.mem_ctrls.perBankRdBursts::14            65140                       # Per bank write bursts
system.mem_ctrls.perBankRdBursts::15            65169                       # Per bank write bursts
system.mem_ctrls.perBankWrBursts::0             65163                       # Per bank write bursts
system.mem_ctrls.perBankWrBursts::1             65159                       # Per bank write bursts
system.mem_ctrls.perBankWrBursts::2             65153                       # Per bank write bursts
system.mem_ctrls.perBankWrBursts::3             65094                       # Per bank write bursts
system.mem_ctrls.perBankWrBursts::4             65025                       # Per bank write bursts
system.mem_ctrls.perBankWrBursts::5             65027                       # Per bank write bursts
system.mem_ctrls.perBankWrBursts::6             65026                       # Per bank write bursts
system.mem_ctrls.perBankWrBursts::7             65028                       # Per bank write bursts
system.mem_ctrls.perBankWrBursts::8             65024                       # Per bank write bursts
system.mem_ctrls.perBankWrBursts::9             65073                       # Per bank write bursts
system.mem_ctrls.perBankWrBursts::10            65050                       # Per bank write bursts
system.mem_ctrls.perBankWrBursts::11            65057                       # Per bank write bursts
system.mem_ctrls.perBankWrBursts::12            65035                       # Per bank write bursts
system.mem_ctrls.perBankWrBursts::13            65040                       # Per bank write bursts
system.mem_ctrls.perBankWrBursts::14            65104                       # Per bank write bursts
system.mem_ctrls.perBankWrBursts::15            65155                       # Per bank write bursts
system.mem_ctrls.avgRdQLen                       1.00                       # Average read queue length when enqueuing
system.mem_ctrls.avgWrQLen                      26.21                       # Average write queue length when enqueuing
system.mem_ctrls.totQLat                  10537762000                       # Total ticks spent queuing
system.mem_ctrls.totBusLat                 5210640000                       # Total ticks spent in databus transfers
system.mem_ctrls.totMemAccLat             30077662000                       # Total ticks spent from burst creation until serviced by the DRAM
system.mem_ctrls.avgQLat                     10111.77                       # Average queueing delay per DRAM burst
system.mem_ctrls.avgBusLat                    5000.00                       # Average bus latency per DRAM burst
system.mem_ctrls.avgMemAccLat                28861.77                       # Average memory access latency per DRAM burst
system.mem_ctrls.numRdRetry                         0                       # Number of times read queue was full causing retry
system.mem_ctrls.numWrRetry                         0                       # Number of times write queue was full causing retry
system.mem_ctrls.readRowHits                   968576                       # Number of row buffer hits during reads
system.mem_ctrls.writeRowHits                  962954                       # Number of row buffer hits during writes
system.mem_ctrls.readRowHitRate                 92.94                       # Row buffer hit rate for reads
system.mem_ctrls.writeRowHitRate                92.48                       # Row buffer hit rate for writes
system.mem_ctrls.readPktSize::0                     0                       # Read request sizes (log2)
system.mem_ctrls.readPktSize::1                     0                       # Read request sizes (log2)
system.mem_ctrls.readPktSize::2                     0                       # Read request sizes (log2)
system.mem_ctrls.readPktSize::3                     0                       # Read request sizes (log2)
system.mem_ctrls.readPktSize::4                     0                       # Read request sizes (log2)
system.mem_ctrls.readPktSize::5                     0                       # Read request sizes (log2)
system.mem_ctrls.readPktSize::6               1042133                       # Read request sizes (log2)
system.mem_ctrls.writePktSize::0                    0                       # Write request sizes (log2)
system.mem_ctrls.writePktSize::1                    0                       # Write request sizes (log2)
system.mem_ctrls.writePktSize::2                    0                       # Write request sizes (log2)
system.mem_ctrls.writePktSize::3                    0                       # Write request sizes (log2)
system.mem_ctrls.writePktSize::4                    0                       # Write request sizes (log2)
system.mem_ctrls.writePktSize::5                    0                       # Write request sizes (log2)
system.mem_ctrls.writePktSize::6              1041241                       # Write request sizes (log2)
system.mem_ctrls.rdQLenPdf::0                 1041913                       # What read queue length does an incoming req see
system.mem_ctrls.rdQLenPdf::1                     156                       # What read queue length does an incoming req see
system.mem_ctrls.rdQLenPdf::2                      43                       # What read queue length does an incoming req see
system.mem_ctrls.rdQLenPdf::3                      14                       # What read queue length does an incoming req see
system.mem_ctrls.rdQLenPdf::4                       2                       # What read queue length does an incoming req see
system.mem_ctrls.rdQLenPdf::5                       0                       # What read queue length does an incoming req see
system.mem_ctrls.rdQLenPdf::6                       0                       # What read queue length does an incoming req see
system.mem_ctrls.rdQLenPdf::7                       0                       # What read queue length does an incoming req see
system.mem_ctrls.rdQLenPdf::8                       0                       # What read queue length does an incoming req see
system.mem_ctrls.rdQLenPdf::9                       0                       # What read queue length does an incoming req see
system.mem_ctrls.rdQLenPdf::10                      0                       # What read queue length does an incoming req see
system.mem_ctrls.rdQLenPdf::11                      0                       # What read queue length does an incoming req see
system.mem_ctrls.rdQLenPdf::12                      0                       # What read queue length does an incoming req see
system.mem_ctrls.rdQLenPdf::13                      0                       # What read queue length does an incoming req see
system.mem_ctrls.rdQLenPdf::14                      0                       # What read queue length does an incoming req see
system.mem_ctrls.rdQLenPdf::15                      0                       # What read queue length does an incoming req see
system.mem_ctrls.rdQLenPdf::16                      0                       # What read queue length does an incoming req see
system.mem_ctrls.rdQLenPdf::17                      0                       # What read queue length does an incoming req see
system.mem_ctrls.rdQLenPdf::18                      0                       # What read queue length does an incoming req see
system.mem_ctrls.rdQLenPdf::19                      0                       # What read queue length does an incoming req see
system.mem_ctrls.rdQLenPdf::20                      0                       # What read queue length does an incoming req see
system.mem_ctrls.rdQLenPdf::21                      0                       # What read queue length does an incoming req see
system.mem_ctrls.rdQLenPdf::22                      0                       # What read queue length does an incoming req see
system.mem_ctrls.rdQLenPdf::23                      0                       # What read queue length does an incoming req see
system.mem_ctrls.rdQLenPdf::24                      0                       # What read queue length does an incoming req see
system.mem_ctrls.rdQLenPdf::25                      0                       # What read queue length does an incoming req see
system.mem_ctrls.rdQLenPdf::26                      0                       # What read queue length does an incoming req see
system.mem_ctrls.rdQLenPdf::27                      0                       # What read queue length does an incoming req see
system.mem_ctrls.rdQLenPdf::28                      0                       # What read queue length does an incoming req see
system.mem_ctrls.rdQLenPdf::29                      0                       # What read queue length does an incoming req see
system.mem_ctrls.rdQLenPdf::30                      0                       # What read queue length does an incoming req see
system.mem_ctrls.rdQLenPdf::31                      0                       # What read queue length does an incoming req see
system.mem_ctrls.wrQLenPdf::0                       1                       # What write queue length does an incoming req see
system.mem_ctrls.wrQLenPdf::1                       1                       # What write queue length does an incoming req see
system.mem_ctrls.wrQLenPdf::2                       1                       # What write queue length does an incoming req see
system.mem_ctrls.wrQLenPdf::3                       1                       # What write queue length does an incoming req see
system.mem_ctrls.wrQLenPdf::4                       1                       # What write queue length does an incoming req see
system.mem_ctrls.wrQLenPdf::5                       1                       # What write queue length does an incoming req see
system.mem_ctrls.wrQLenPdf::6                       1                       # What write queue length does an incoming req see
system.mem_ctrls.wrQLenPdf::7                       1                       # What write queue length does an incoming req see
system.mem_ctrls.wrQLenPdf::8                       1                       # What write queue length does an incoming req see
system.mem_ctrls.wrQLenPdf::9                       1                       # What write queue length does an incoming req see
system.mem_ctrls.wrQLenPdf::10                      1                       # What write queue length does an incoming req see
system.mem_ctrls.wrQLenPdf::11                      1                       # What write queue length does an incoming req see
system.mem_ctrls.wrQLenPdf::12                      1                       # What write queue length does an incoming req see
system.mem_ctrls.wrQLenPdf::13                      1                       # What write queue length does an incoming req see
system.mem_ctrls.wrQLenPdf::14                      1                       # What write queue length does an incoming req see
system.mem_ctrls.wrQLenPdf::15                      1                       # What write queue length does an incoming req see
[...]
system.cpu.dtb_walker_cache.avg_blocked_cycles::no_targets          nan                       # average number of cycles each access was blocked
system.cpu.dtb_walker_cache.replacements            0                       # number of replacements
system.cpu.dtb_walker_cache.tags.pwrStateResidencyTicks::UNDEFINED  74934102500                       # Cumulative time (in ticks) in various power states
system.cpu.dtb_walker_cache.tags.tagsinuse            0                       # Cycle average of tags in use
system.cpu.dtb_walker_cache.tags.total_refs            0                       # Total number of references to valid blocks.
system.cpu.dtb_walker_cache.tags.sampled_refs            0                       # Sample count of references to valid blocks.
system.cpu.dtb_walker_cache.tags.avg_refs          nan                       # Average number of references to valid blocks.
system.cpu.dtb_walker_cache.tags.warmup_cycle            0                       # Cycle when the warmup percentage was hit.
system.cpu.dtb_walker_cache.tags.tag_accesses            0                       # Number of tag accesses
system.cpu.dtb_walker_cache.tags.data_accesses            0                       # Number of data accesses
system.cpu.dcache.pwrStateResidencyTicks::UNDEFINED  74934102500                       # Cumulative time (in ticks) in various power states
system.cpu.dcache.demand_hits::.cpu.data     25001010                       # number of demand (read+write) hits
system.cpu.dcache.demand_hits::total         25001010                       # number of demand (read+write) hits
system.cpu.dcache.overall_hits::.cpu.data     25001022                       # number of overall hits
system.cpu.dcache.overall_hits::total        25001022                       # number of overall hits
system.cpu.dcache.demand_misses::.cpu.data      8332952                       # number of demand (read+write) misses
system.cpu.dcache.demand_misses::total        8332952                       # number of demand (read+write) misses
system.cpu.dcache.overall_misses::.cpu.data      8332964                       # number of overall misses
system.cpu.dcache.overall_misses::total       8332964                       # number of overall misses
system.cpu.dcache.demand_miss_latency::.cpu.data 491596712500                       # number of demand (read+write) miss cycles
system.cpu.dcache.demand_miss_latency::total 491596712500                       # number of demand (read+write) miss cycles
system.cpu.dcache.overall_miss_latency::.cpu.data 491596712500                       # number of overall miss cycles
system.cpu.dcache.overall_miss_latency::total 491596712500                       # number of overall miss cycles
system.cpu.dcache.demand_accesses::.cpu.data     33333962                       # number of demand (read+write) accesses
system.cpu.dcache.demand_accesses::total     33333962                       # number of demand (read+write) accesses
system.cpu.dcache.overall_accesses::.cpu.data     33333986                       # number of overall (read+write) accesses
system.cpu.dcache.overall_accesses::total     33333986                       # number of overall (read+write) accesses
system.cpu.dcache.demand_miss_rate::.cpu.data     0.249984                       # miss rate for demand accesses
system.cpu.dcache.demand_miss_rate::total     0.249984                       # miss rate for demand accesses
system.cpu.dcache.overall_miss_rate::.cpu.data     0.249984                       # miss rate for overall accesses
system.cpu.dcache.overall_miss_rate::total     0.249984                       # miss rate for overall accesses
system.cpu.dcache.demand_avg_miss_latency::.cpu.data 58994.305079                       # average overall miss latency
system.cpu.dcache.demand_avg_miss_latency::total 58994.305079                       # average overall miss latency
system.cpu.dcache.overall_avg_miss_latency::.cpu.data 58994.220124                       # average overall miss latency
system.cpu.dcache.overall_avg_miss_latency::total 58994.220124                       # average overall miss latency
system.cpu.dcache.blocked_cycles::no_mshrs            0                       # number of cycles access was blocked
system.cpu.dcache.blocked_cycles::no_targets     79159468                       # number of cycles access was blocked
system.cpu.dcache.blocked::no_mshrs                 0                       # number of cycles access was blocked
system.cpu.dcache.blocked::no_targets         1041586                       # number of cycles access was blocked
system.cpu.dcache.avg_blocked_cycles::no_mshrs          nan                       # average number of cycles each access was blocked
system.cpu.dcache.avg_blocked_cycles::no_targets    75.998975                       # average number of cycles each access was blocked
system.cpu.dcache.writebacks::.writebacks      1041229                       # number of writebacks
system.cpu.dcache.writebacks::total           1041229                       # number of writebacks
system.cpu.dcache.demand_mshr_hits::.cpu.data      7291223                       # number of demand (read+write) MSHR hits
system.cpu.dcache.demand_mshr_hits::total      7291223                       # number of demand (read+write) MSHR hits
system.cpu.dcache.overall_mshr_hits::.cpu.data      7291223                       # number of overall MSHR hits
system.cpu.dcache.overall_mshr_hits::total      7291223                       # number of overall MSHR hits
system.cpu.dcache.demand_mshr_misses::.cpu.data      1041729                       # number of demand (read+write) MSHR misses
system.cpu.dcache.demand_mshr_misses::total      1041729                       # number of demand (read+write) MSHR misses
system.cpu.dcache.overall_mshr_misses::.cpu.data      1041737                       # number of overall MSHR misses
system.cpu.dcache.overall_mshr_misses::total      1041737                       # number of overall MSHR misses
system.cpu.dcache.demand_mshr_miss_latency::.cpu.data  63321804250                       # number of demand (read+write) MSHR miss cycles
system.cpu.dcache.demand_mshr_miss_latency::total  63321804250                       # number of demand (read+write) MSHR miss cycles
system.cpu.dcache.overall_mshr_miss_latency::.cpu.data  63322276375                       # number of overall MSHR miss cycles
system.cpu.dcache.overall_mshr_miss_latency::total  63322276375                       # number of overall MSHR miss cycles
system.cpu.dcache.demand_mshr_miss_rate::.cpu.data     0.031251                       # mshr miss rate for demand accesses
system.cpu.dcache.demand_mshr_miss_rate::total     0.031251                       # mshr miss rate for demand accesses
system.cpu.dcache.overall_mshr_miss_rate::.cpu.data     0.031251                       # mshr miss rate for overall accesses
system.cpu.dcache.overall_mshr_miss_rate::total     0.031251                       # mshr miss rate for overall accesses
system.cpu.dcache.demand_avg_mshr_miss_latency::.cpu.data 60785.294688                       # average overall mshr miss latency
system.cpu.dcache.demand_avg_mshr_miss_latency::total 60785.294688                       # average overall mshr miss latency
system.cpu.dcache.overall_avg_mshr_miss_latency::.cpu.data 60785.281098                       # average overall mshr miss latency
system.cpu.dcache.overall_avg_mshr_miss_latency::total 60785.281098                       # average overall mshr miss latency
system.cpu.dcache.replacements                1041229                       # number of replacements
system.cpu.dcache.ReadReq_hits::.cpu.data     16666914                       # number of ReadReq hits
system.cpu.dcache.ReadReq_hits::total        16666914                       # number of ReadReq hits
system.cpu.dcache.ReadReq_misses::.cpu.data          167                       # number of ReadReq misses
system.cpu.dcache.ReadReq_misses::total           167                       # number of ReadReq misses
system.cpu.dcache.ReadReq_miss_latency::.cpu.data     10022625                       # number of ReadReq miss cycles
system.cpu.dcache.ReadReq_miss_latency::total     10022625                       # number of ReadReq miss cycles
system.cpu.dcache.ReadReq_accesses::.cpu.data     16667081                       # number of ReadReq accesses(hits+misses)
system.cpu.dcache.ReadReq_accesses::total     16667081                       # number of ReadReq accesses(hits+misses)
system.cpu.dcache.ReadReq_miss_rate::.cpu.data     0.000010                       # miss rate for ReadReq accesses
system.cpu.dcache.ReadReq_miss_rate::total     0.000010                       # miss rate for ReadReq accesses
system.cpu.dcache.ReadReq_avg_miss_latency::.cpu.data 60015.718563                       # average ReadReq miss latency
system.cpu.dcache.ReadReq_avg_miss_latency::total 60015.718563                       # average ReadReq miss latency
system.cpu.dcache.ReadReq_mshr_hits::.cpu.data           65                       # number of ReadReq MSHR hits
system.cpu.dcache.ReadReq_mshr_hits::total           65                       # number of ReadReq MSHR hits
system.cpu.dcache.ReadReq_mshr_misses::.cpu.data          102                       # number of ReadReq MSHR misses
system.cpu.dcache.ReadReq_mshr_misses::total          102                       # number of ReadReq MSHR misses
system.cpu.dcache.ReadReq_mshr_miss_latency::.cpu.data      6360750                       # number of ReadReq MSHR miss cycles
system.cpu.dcache.ReadReq_mshr_miss_latency::total      6360750                       # number of ReadReq MSHR miss cycles
system.cpu.dcache.ReadReq_mshr_miss_rate::.cpu.data     0.000006                       # mshr miss rate for ReadReq accesses
system.cpu.dcache.ReadReq_mshr_miss_rate::total     0.000006                       # mshr miss rate for ReadReq accesses
system.cpu.dcache.ReadReq_avg_mshr_miss_latency::.cpu.data 62360.294118                       # average ReadReq mshr miss latency
system.cpu.dcache.ReadReq_avg_mshr_miss_latency::total 62360.294118                       # average ReadReq mshr miss latency
system.cpu.dcache.WriteReq_hits::.cpu.data      8334096                       # number of WriteReq hits
system.cpu.dcache.WriteReq_hits::total        8334096                       # number of WriteReq hits
system.cpu.dcache.WriteReq_misses::.cpu.data      8332785                       # number of WriteReq misses
system.cpu.dcache.WriteReq_misses::total      8332785                       # number of WriteReq misses
system.cpu.dcache.WriteReq_miss_latency::.cpu.data 491586689875                       # number of WriteReq miss cycles
system.cpu.dcache.WriteReq_miss_latency::total 491586689875                       # number of WriteReq miss cycles
system.cpu.dcache.WriteReq_accesses::.cpu.data     16666881                       # number of WriteReq accesses(hits+misses)
system.cpu.dcache.WriteReq_accesses::total     16666881                       # number of WriteReq accesses(hits+misses)
system.cpu.dcache.WriteReq_miss_rate::.cpu.data     0.499961                       # miss rate for WriteReq accesses
system.cpu.dcache.WriteReq_miss_rate::total     0.499961                       # miss rate for WriteReq accesses
system.cpu.dcache.WriteReq_avg_miss_latency::.cpu.data 58994.284609                       # average WriteReq miss latency
system.cpu.dcache.WriteReq_avg_miss_latency::total 58994.284609                       # average WriteReq miss latency
system.cpu.dcache.WriteReq_mshr_hits::.cpu.data      7291158                       # number of WriteReq MSHR hits
system.cpu.dcache.WriteReq_mshr_hits::total      7291158                       # number of WriteReq MSHR hits
system.cpu.dcache.WriteReq_mshr_misses::.cpu.data      1041627                       # number of WriteReq MSHR misses
system.cpu.dcache.WriteReq_mshr_misses::total      1041627                       # number of WriteReq MSHR misses
system.cpu.dcache.WriteReq_mshr_miss_latency::.cpu.data  63315443500                       # number of WriteReq MSHR miss cycles
system.cpu.dcache.WriteReq_mshr_miss_latency::total  63315443500                       # number of WriteReq MSHR miss cycles
system.cpu.dcache.WriteReq_mshr_miss_rate::.cpu.data     0.062497                       # mshr miss rate for WriteReq accesses
system.cpu.dcache.WriteReq_mshr_miss_rate::total     0.062497                       # mshr miss rate for WriteReq accesses
system.cpu.dcache.WriteReq_avg_mshr_miss_latency::.cpu.data 60785.140458                       # average WriteReq mshr miss latency
system.cpu.dcache.WriteReq_avg_mshr_miss_latency::total 60785.140458                       # average WriteReq mshr miss latency
system.cpu.dcache.SoftPFReq_hits::.cpu.data           12                       # number of SoftPFReq hits
system.cpu.dcache.SoftPFReq_hits::total            12                       # number of SoftPFReq hits
system.cpu.dcache.SoftPFReq_misses::.cpu.data           12                       # number of SoftPFReq misses
system.cpu.dcache.SoftPFReq_misses::total           12                       # number of SoftPFReq misses
system.cpu.dcache.SoftPFReq_accesses::.cpu.data           24                       # number of SoftPFReq accesses(hits+misses)
system.cpu.dcache.SoftPFReq_accesses::total           24                       # number of SoftPFReq accesses(hits+misses)
system.cpu.dcache.SoftPFReq_miss_rate::.cpu.data     0.500000                       # miss rate for SoftPFReq accesses
system.cpu.dcache.SoftPFReq_miss_rate::total     0.500000                       # miss rate for SoftPFReq accesses
system.cpu.dcache.SoftPFReq_mshr_misses::.cpu.data            8                       # number of SoftPFReq MSHR misses
system.cpu.dcache.SoftPFReq_mshr_misses::total            8                       # number of SoftPFReq MSHR misses
system.cpu.dcache.SoftPFReq_mshr_miss_latency::.cpu.data       472125                       # number of SoftPFReq MSHR miss cycles
system.cpu.dcache.SoftPFReq_mshr_miss_latency::total       472125                       # number of SoftPFReq MSHR miss cycles
system.cpu.dcache.SoftPFReq_mshr_miss_rate::.cpu.data     0.333333                       # mshr miss rate for SoftPFReq accesses
system.cpu.dcache.SoftPFReq_mshr_miss_rate::total     0.333333                       # mshr miss rate for SoftPFReq accesses
system.cpu.dcache.SoftPFReq_avg_mshr_miss_latency::.cpu.data 59015.625000                       # average SoftPFReq mshr miss latency
system.cpu.dcache.SoftPFReq_avg_mshr_miss_latency::total 59015.625000                       # average SoftPFReq mshr miss latency
system.cpu.dcache.LoadLockedReq_hits::.cpu.data           35                       # number of LoadLockedReq hits
system.cpu.dcache.LoadLockedReq_hits::total           35                       # number of LoadLockedReq hits
system.cpu.dcache.LoadLockedReq_misses::.cpu.data            5                       # number of LoadLockedReq misses
system.cpu.dcache.LoadLockedReq_misses::total            5                       # number of LoadLockedReq misses
system.cpu.dcache.LoadLockedReq_miss_latency::.cpu.data       410000                       # number of LoadLockedReq miss cycles
system.cpu.dcache.LoadLockedReq_miss_latency::total       410000                       # number of LoadLockedReq miss cycles
system.cpu.dcache.LoadLockedReq_accesses::.cpu.data           40                       # number of LoadLockedReq accesses(hits+misses)
system.cpu.dcache.LoadLockedReq_accesses::total           40                       # number of LoadLockedReq accesses(hits+misses)
system.cpu.dcache.LoadLockedReq_miss_rate::.cpu.data     0.125000                       # miss rate for LoadLockedReq accesses
system.cpu.dcache.LoadLockedReq_miss_rate::total     0.125000                       # miss rate for LoadLockedReq accesses
system.cpu.dcache.LoadLockedReq_avg_miss_latency::.cpu.data        82000                       # average LoadLockedReq miss latency
system.cpu.dcache.LoadLockedReq_avg_miss_latency::total        82000                       # average LoadLockedReq miss latency
system.cpu.dcache.LoadLockedReq_mshr_hits::.cpu.data            1                       # number of LoadLockedReq MSHR hits
system.cpu.dcache.LoadLockedReq_mshr_hits::total            1                       # number of LoadLockedReq MSHR hits
system.cpu.dcache.LoadLockedReq_mshr_misses::.cpu.data            4                       # number of LoadLockedReq MSHR misses
system.cpu.dcache.LoadLockedReq_mshr_misses::total            4                       # number of LoadLockedReq MSHR misses
system.cpu.dcache.LoadLockedReq_mshr_miss_latency::.cpu.data       349625                       # number of LoadLockedReq MSHR miss cycles
system.cpu.dcache.LoadLockedReq_mshr_miss_latency::total       349625                       # number of LoadLockedReq MSHR miss cycles
system.cpu.dcache.LoadLockedReq_mshr_miss_rate::.cpu.data     0.100000                       # mshr miss rate for LoadLockedReq accesses
system.cpu.dcache.LoadLockedReq_mshr_miss_rate::total     0.100000                       # mshr miss rate for LoadLockedReq accesses
system.cpu.dcache.LoadLockedReq_avg_mshr_miss_latency::.cpu.data 87406.250000                       # average LoadLockedReq mshr miss latency
system.cpu.dcache.LoadLockedReq_avg_mshr_miss_latency::total 87406.250000                       # average LoadLockedReq mshr miss latency
system.cpu.dcache.StoreCondReq_hits::.cpu.data           36                       # number of StoreCondReq hits
system.cpu.dcache.StoreCondReq_hits::total           36                       # number of StoreCondReq hits
system.cpu.dcache.StoreCondReq_accesses::.cpu.data           36                       # number of StoreCondReq accesses(hits+misses)
system.cpu.dcache.StoreCondReq_accesses::total           36                       # number of StoreCondReq accesses(hits+misses)
system.cpu.dcache.tags.pwrStateResidencyTicks::UNDEFINED  74934102500                       # Cumulative time (in ticks) in various power states
system.cpu.dcache.tags.tagsinuse           511.810154                       # Cycle average of tags in use
system.cpu.dcache.tags.total_refs            26042834                       # Total number of references to valid blocks.
system.cpu.dcache.tags.sampled_refs           1041741                       # Sample count of references to valid blocks.
system.cpu.dcache.tags.avg_refs             24.999337                       # Average number of references to valid blocks.
system.cpu.dcache.tags.warmup_cycle            148000                       # Cycle when the warmup percentage was hit.
system.cpu.dcache.tags.occ_blocks::.cpu.data   511.810154                       # Average occupied blocks per requestor
system.cpu.dcache.tags.occ_percent::.cpu.data     0.999629                       # Average percentage of cache occupancy
system.cpu.dcache.tags.occ_percent::total     0.999629                       # Average percentage of cache occupancy
system.cpu.dcache.tags.occ_task_id_blocks::1024          512                       # Occupied blocks per task id
system.cpu.dcache.tags.age_task_id_blocks_1024::0          139                       # Occupied blocks per task id
system.cpu.dcache.tags.age_task_id_blocks_1024::1          372                       # Occupied blocks per task id
system.cpu.dcache.tags.age_task_id_blocks_1024::4            1                       # Occupied blocks per task id
system.cpu.dcache.tags.occ_task_id_percent::1024            1                       # Percentage of cache occupancy per task id
system.cpu.dcache.tags.tag_accesses         134377989                       # Number of tag accesses
system.cpu.dcache.tags.data_accesses        134377989                       # Number of data accesses

---------- End Simulation Statistics   ----------
